data/pglib_opf_case2746wop_k_storage.m
%%%%%%%%%%%%%%%%%%%%%%%%%%%%%%%%%%%%%%%%%%%%%%%%%%%%%%%%%%%%%%%%%%%%%%%%%%%
%%%%                                                                  %%%%%
%%%%    IEEE PES Power Grid Library - Optimal Power Flow - v23.07     %%%%%
%%%%          (https://github.com/power-grid-lib/pglib-opf)           %%%%%
%%%%               Benchmark Group - Typical Operations               %%%%%
%%%%                         23 - July - 2023                         %%%%%
%%%%                                                                  %%%%%
%%%%%%%%%%%%%%%%%%%%%%%%%%%%%%%%%%%%%%%%%%%%%%%%%%%%%%%%%%%%%%%%%%%%%%%%%%%
%
%   Power flow data for Polish system - winter 2003-04 off-peak.
%   Please see CASEFORMAT for details on the case file format.
%
%   This case represents the Polish 400, 220 and 110 kV networks during
%   winter 2003-04 off-peak conditions. Multiple centrally dispatchable
%   generators at a bus have not been aggregated. Generators that are
%   not centrally dispatchable in the Polish energy market are given a
%   cost of zero.
%
%   Copyright (c) 2010 by Roman Korab <roman.korab@polsl.pl>
%   Licensed under the Creative Commons Attribution 4.0
%   International license, http://creativecommons.org/licenses/by/4.0/
%
% Modified to have additional storage capacity and increased gencost
function mpc = pglib_opf_case2746wop_k
mpc.version = '2';
mpc.baseMVA = 100.0;

%% bus data
%	bus_i	type	Pd	Qd	Gs	Bs	area	Vm	Va	baseKV	zone	Vmax	Vmin
mpc.bus = [
	1	 1	 0.0	 0.0	 0.0	 0.0	 1	    1.03000	    0.00000	 220.0	 1	    1.11000	    0.95000;
	2	 1	 0.0	 0.0	 0.0	 0.0	 1	    1.03000	    0.00000	 220.0	 1	    1.11000	    0.95000;
	3	 1	 0.0	 0.0	 0.0	 0.0	 1	    1.03000	    0.00000	 220.0	 1	    1.11000	    0.95000;
	4	 1	 0.0	 0.0	 0.0	 0.0	 1	    1.03000	    0.00000	 220.0	 1	    1.11000	    0.95000;
	5	 1	 0.0	 0.0	 0.0	 0.0	 1	    1.03000	    0.00000	 220.0	 1	    1.11000	    0.95000;
	6	 1	 0.0	 0.0	 0.0	 0.0	 1	    1.03000	    0.00000	 220.0	 1	    1.11000	    0.95000;
	7	 1	 0.0	 0.0	 0.0	 0.0	 1	    1.03000	    0.00000	 220.0	 1	    1.11000	    0.95000;
	8	 1	 0.0	 0.0	 0.0	 -50.0	 1	    1.00000	    0.00000	 400.0	 1	    1.05000	    0.95000;
	9	 1	 0.0	 0.0	 0.0	 0.0	 1	    1.00000	    0.00000	 400.0	 1	    1.05000	    0.95000;
	10	 1	 0.0	 0.0	 0.0	 0.0	 1	    1.03000	    0.00000	 220.0	 1	    1.11000	    0.95000;
	11	 1	 0.0	 0.0	 0.0	 0.0	 1	    1.03000	    0.00000	 220.0	 1	    1.11000	    0.95000;
	12	 1	 0.0	 0.0	 0.0	 0.0	 1	    1.03000	    0.00000	 220.0	 1	    1.11000	    0.95000;
	13	 1	 0.0	 0.0	 0.0	 -50.0	 1	    1.00000	    0.00000	 400.0	 1	    1.05000	    0.95000;
	14	 1	 0.0	 0.0	 0.0	 0.0	 1	    1.00000	    0.00000	 400.0	 1	    1.05000	    0.95000;
	15	 1	 0.0	 0.0	 0.0	 0.0	 1	    1.00000	    0.00000	 400.0	 1	    1.05000	    0.95000;
	16	 1	 0.0	 0.0	 0.0	 0.0	 1	    1.00000	    0.00000	 400.0	 1	    1.05000	    0.95000;
	17	 2	 2.302	 31.0	 0.0	 0.0	 1	    1.03000	    0.00000	 220.0	 1	    1.11000	    0.95000;
	18	 2	 9.7	 40.0	 0.0	 0.0	 1	    1.03000	    0.00000	 220.0	 1	    1.11000	    0.95000;
	19	 1	 0.0	 0.0	 0.0	 0.0	 1	    1.03000	    0.00000	 220.0	 1	    1.11000	    0.95000;
	20	 1	 0.0	 0.0	 0.0	 0.0	 1	    1.03000	    0.00000	 220.0	 1	    1.11000	    0.95000;
	21	 1	 0.0	 0.0	 0.0	 0.0	 1	    1.03000	    0.00000	 220.0	 1	    1.11000	    0.95000;
	22	 1	 0.0	 0.0	 0.0	 0.0	 1	    1.03000	    0.00000	 220.0	 1	    1.11000	    0.95000;
	23	 1	 0.0	 0.0	 0.0	 0.0	 1	    1.03000	    0.00000	 220.0	 1	    1.11000	    0.95000;
	24	 1	 0.0	 0.0	 0.0	 0.0	 1	    1.03000	    0.00000	 220.0	 1	    1.11000	    0.95000;
	25	 1	 0.0	 0.0	 0.0	 -50.0	 1	    1.00000	    0.00000	 400.0	 1	    1.05000	    0.95000;
	26	 2	 28.565	 42.054	 0.0	 0.0	 1	    1.03000	    0.00000	 220.0	 1	    1.11000	    0.95000;
	27	 2	 85.005	 122.06	 0.0	 0.0	 1	    1.03000	    0.00000	 220.0	 1	    1.11000	    0.95000;
	28	 3	 44.783	 80.0	 0.0	 0.0	 1	    1.00000	    0.00000	 400.0	 1	    1.05000	    0.95000;
	29	 2	 60.097	 90.0	 0.0	 0.0	 1	    1.00000	    0.00000	 400.0	 1	    1.05000	    0.95000;
	30	 1	 0.0	 0.0	 0.0	 0.0	 1	    1.03000	    0.00000	 220.0	 1	    1.11000	    0.95000;
	31	 1	 0.0	 0.0	 0.0	 0.0	 1	    1.00000	    0.00000	 400.0	 1	    1.05000	    0.95000;
	32	 1	 0.0	 0.0	 0.0	 0.0	 1	    1.03000	    0.00000	 220.0	 1	    1.11000	    0.95000;
	33	 1	 0.0	 0.0	 0.0	 0.0	 1	    1.03000	    0.00000	 220.0	 1	    1.11000	    0.95000;
	34	 1	 0.0	 0.0	 0.0	 0.0	 1	    1.03000	    0.00000	 220.0	 1	    1.11000	    0.95000;
	35	 1	 0.0	 0.0	 0.0	 0.0	 1	    1.03000	    0.00000	 220.0	 2	    1.11000	    0.95000;
	36	 1	 0.0	 0.0	 0.0	 0.0	 1	    1.03000	    0.00000	 220.0	 2	    1.11000	    0.95000;
	37	 1	 0.0	 0.0	 0.0	 0.0	 1	    1.03000	    0.00000	 220.0	 2	    1.11000	    0.95000;
	38	 1	 0.0	 0.0	 0.0	 0.0	 1	    1.03000	    0.00000	 220.0	 2	    1.11000	    0.95000;
	39	 1	 0.0	 0.0	 0.0	 0.0	 1	    1.03000	    0.00000	 220.0	 2	    1.11000	    0.95000;
	40	 1	 0.0	 0.0	 0.0	 0.0	 1	    1.03000	    0.00000	 220.0	 2	    1.11000	    0.95000;
	41	 1	 0.0	 0.0	 0.0	 0.0	 1	    1.03000	    0.00000	 220.0	 2	    1.11000	    0.95000;
	42	 1	 0.0	 0.0	 0.0	 0.0	 1	    1.00000	    0.00000	 400.0	 2	    1.05000	    0.95000;
	43	 2	 12.0	 0.0	 0.0	 0.0	 1	    1.03000	    0.00000	 220.0	 2	    1.11000	    0.95000;
	44	 2	 24.0	 0.0	 0.0	 0.0	 1	    1.03000	    0.00000	 220.0	 2	    1.11000	    0.95000;
	45	 2	 20.0	 0.0	 0.0	 0.0	 1	    1.00000	    0.00000	 400.0	 2	    1.05000	    0.95000;
	46	 1	 0.0	 0.0	 0.0	 0.0	 1	    1.00000	    0.00000	 400.0	 2	    1.05000	    0.95000;
	47	 1	 0.0	 0.0	 0.0	 0.0	 1	    1.03000	    0.00000	 220.0	 2	    1.11000	    0.95000;
	48	 1	 0.0	 0.0	 0.0	 0.0	 1	    1.00000	    0.00000	 400.0	 2	    1.05000	    0.95000;
	49	 1	 0.0	 0.0	 0.0	 0.0	 1	    1.00000	    0.00000	 400.0	 2	    1.05000	    0.95000;
	50	 1	 0.0	 0.0	 0.0	 0.0	 1	    1.00000	    0.00000	 400.0	 2	    1.05000	    0.95000;
	51	 1	 0.0	 0.0	 0.0	 0.0	 1	    1.03000	    0.00000	 220.0	 2	    1.11000	    0.95000;
	52	 1	 0.0	 0.0	 0.0	 0.0	 1	    1.03000	    0.00000	 220.0	 2	    1.11000	    0.95000;
	53	 1	 0.0	 0.0	 0.0	 0.0	 1	    1.00000	    0.00000	 400.0	 2	    1.05000	    0.95000;
	54	 1	 0.0	 0.0	 0.0	 0.0	 1	    1.00000	    0.00000	 400.0	 2	    1.05000	    0.95000;
	55	 2	 12.0	 0.0	 0.0	 0.0	 1	    1.03000	    0.00000	 220.0	 2	    1.11000	    0.95000;
	56	 2	 12.0	 0.0	 0.0	 0.0	 1	    1.03000	    0.00000	 220.0	 2	    1.11000	    0.95000;
	57	 2	 12.0	 0.0	 0.0	 0.0	 1	    1.00000	    0.00000	 400.0	 2	    1.05000	    0.95000;
	58	 2	 12.0	 0.0	 0.0	 0.0	 1	    1.00000	    0.00000	 400.0	 2	    1.05000	    0.95000;
	59	 2	 170.733	 62.0	 0.0	 0.0	 1	    1.03000	    0.00000	 220.0	 2	    1.11000	    0.95000;
	60	 1	 0.0	 0.0	 0.0	 0.0	 1	    1.03000	    0.00000	 220.0	 2	    1.11000	    0.95000;
	61	 1	 0.0	 0.0	 0.0	 0.0	 1	    1.03000	    0.00000	 220.0	 2	    1.11000	    0.95000;
	62	 1	 0.0	 0.0	 0.0	 0.0	 1	    1.03000	    0.00000	 220.0	 2	    1.11000	    0.95000;
	63	 1	 0.0	 0.0	 0.0	 0.0	 1	    1.03000	    0.00000	 220.0	 2	    1.11000	    0.95000;
	64	 1	 0.0	 0.0	 0.0	 0.0	 1	    1.00000	    0.00000	 400.0	 2	    1.05000	    0.95000;
	65	 1	 0.0	 0.0	 0.0	 0.0	 1	    1.00000	    0.00000	 400.0	 2	    1.05000	    0.95000;
	66	 1	 0.0	 0.0	 0.0	 0.0	 1	    1.03000	    0.00000	 220.0	 2	    1.11000	    0.95000;
	67	 1	 0.0	 0.0	 0.0	 0.0	 1	    1.03000	    0.00000	 220.0	 2	    1.11000	    0.95000;
	68	 1	 0.0	 0.0	 0.0	 0.0	 1	    1.03000	    0.00000	 220.0	 2	    1.11000	    0.95000;
	69	 1	 0.0	 0.0	 0.0	 0.0	 1	    1.03000	    0.00000	 220.0	 3	    1.11000	    0.95000;
	70	 1	 6.8	 0.0	 0.0	 0.0	 1	    1.03000	    0.00000	 220.0	 3	    1.11000	    0.95000;
	71	 1	 11.331	 2.43	 0.0	 0.0	 1	    1.03000	    0.00000	 220.0	 3	    1.11000	    0.95000;
	72	 1	 0.0	 0.0	 0.0	 0.0	 1	    1.03000	    0.00000	 220.0	 3	    1.11000	    0.95000;
	73	 1	 0.0	 0.0	 0.0	 0.0	 1	    1.03000	    0.00000	 220.0	 3	    1.11000	    0.95000;
	74	 1	 0.0	 0.0	 0.0	 0.0	 1	    1.03000	    0.00000	 220.0	 3	    1.11000	    0.95000;
	75	 1	 0.0	 0.0	 0.0	 0.0	 1	    1.03000	    0.00000	 220.0	 3	    1.11000	    0.95000;
	76	 1	 0.0	 0.0	 0.0	 0.0	 1	    1.03000	    0.00000	 220.0	 3	    1.11000	    0.95000;
	77	 1	 0.0	 0.0	 0.0	 0.0	 1	    1.03000	    0.00000	 220.0	 3	    1.11000	    0.95000;
	78	 2	 26.999	 69.999	 0.0	 0.0	 1	    1.03000	    0.00000	 220.0	 3	    1.11000	    0.95000;
	79	 2	 8.999	 20.999	 0.0	 0.0	 1	    1.03000	    0.00000	 220.0	 3	    1.11000	    0.95000;
	80	 1	 10.085	 1.376	 0.0	 0.0	 1	    1.03000	    0.00000	 220.0	 3	    1.11000	    0.95000;
	81	 1	 0.0	 0.0	 0.0	 0.0	 1	    1.03000	    0.00000	 220.0	 3	    1.11000	    0.95000;
	82	 2	 34.999	 107.999	 0.0	 0.0	 1	    1.00000	    0.00000	 400.0	 3	    1.05000	    0.95000;
	83	 1	 0.0	 0.0	 0.0	 0.0	 1	    1.03000	    0.00000	 220.0	 3	    1.11000	    0.95000;
	84	 1	 0.0	 0.0	 0.0	 0.0	 1	    1.03000	    0.00000	 220.0	 3	    1.11000	    0.95000;
	85	 1	 0.0	 0.0	 0.0	 0.0	 1	    1.03000	    0.00000	 220.0	 3	    1.11000	    0.95000;
	86	 1	 44.148	 10.561	 0.0	 0.0	 1	    1.03000	    0.00000	 220.0	 3	    1.11000	    0.95000;
	87	 1	 0.0	 0.0	 0.0	 0.0	 1	    1.03000	    0.00000	 220.0	 3	    1.11000	    0.95000;
	88	 1	 0.0	 0.0	 0.0	 0.0	 1	    1.03000	    0.00000	 220.0	 3	    1.11000	    0.95000;
	89	 1	 0.0	 0.0	 0.0	 0.0	 1	    1.03000	    0.00000	 220.0	 3	    1.11000	    0.95000;
	90	 1	 0.0	 0.0	 0.0	 0.0	 1	    1.03000	    0.00000	 220.0	 3	    1.11000	    0.95000;
	91	 1	 0.0	 0.0	 0.0	 0.0	 1	    1.03000	    0.00000	 220.0	 3	    1.11000	    0.95000;
	92	 1	 0.0	 0.0	 0.0	 0.0	 1	    1.00000	    0.00000	 400.0	 3	    1.05000	    0.95000;
	93	 1	 0.0	 0.0	 0.0	 0.0	 1	    1.00000	    0.00000	 400.0	 3	    1.05000	    0.95000;
	94	 1	 0.0	 0.0	 0.0	 0.0	 1	    1.03000	    0.00000	 220.0	 3	    1.11000	    0.95000;
	95	 1	 0.0	 0.0	 0.0	 0.0	 1	    1.03000	    0.00000	 220.0	 3	    1.11000	    0.95000;
	96	 1	 0.0	 0.0	 0.0	 0.0	 1	    1.03000	    0.00000	 220.0	 3	    1.11000	    0.95000;
	97	 1	 0.0	 0.0	 0.0	 0.0	 1	    1.03000	    0.00000	 220.0	 3	    1.11000	    0.95000;
	98	 1	 17.111	 6.317	 0.0	 0.0	 1	    1.03000	    0.00000	 220.0	 3	    1.11000	    0.95000;
	99	 1	 0.0	 0.0	 0.0	 0.0	 1	    1.03000	    0.00000	 220.0	 3	    1.11000	    0.95000;
	100	 1	 0.0	 0.0	 0.0	 0.0	 1	    1.03000	    0.00000	 220.0	 3	    1.11000	    0.95000;
	101	 1	 0.0	 0.0	 0.0	 0.0	 1	    1.03000	    0.00000	 220.0	 3	    1.11000	    0.95000;
	102	 1	 0.0	 0.0	 0.0	 0.0	 1	    1.03000	    0.00000	 220.0	 3	    1.11000	    0.95000;
	103	 1	 0.0	 0.0	 0.0	 0.0	 1	    1.03000	    0.00000	 220.0	 3	    1.11000	    0.95000;
	104	 2	 13.999	 39.999	 0.0	 0.0	 1	    1.03000	    0.00000	 220.0	 3	    1.11000	    0.95000;
	105	 2	 0.0	 0.0	 0.0	 0.0	 1	    1.03000	    0.00000	 220.0	 3	    1.11000	    0.95000;
	106	 2	 6.999	 17.999	 0.0	 0.0	 1	    1.03000	    0.00000	 220.0	 3	    1.11000	    0.95000;
	107	 2	 7.999	 14.999	 0.0	 0.0	 1	    1.03000	    0.00000	 220.0	 3	    1.11000	    0.95000;
	108	 1	 52.726	 17.138	 0.0	 0.0	 1	    1.03000	    0.00000	 220.0	 3	    1.11000	    0.95000;
	109	 1	 56.444	 10.902	 0.0	 0.0	 1	    1.03000	    0.00000	 220.0	 3	    1.11000	    0.95000;
	110	 1	 0.0	 0.0	 0.0	 0.0	 1	    1.03000	    0.00000	 220.0	 3	    1.11000	    0.95000;
	111	 1	 0.0	 0.0	 0.0	 0.0	 1	    1.03000	    0.00000	 220.0	 3	    1.11000	    0.95000;
	112	 1	 0.0	 0.0	 0.0	 0.0	 1	    1.03000	    0.00000	 220.0	 3	    1.11000	    0.95000;
	113	 1	 0.0	 0.0	 0.0	 0.0	 1	    1.03000	    0.00000	 220.0	 3	    1.11000	    0.95000;
	114	 1	 0.0	 0.0	 0.0	 0.0	 1	    1.03000	    0.00000	 220.0	 3	    1.11000	    0.95000;
	115	 1	 0.0	 0.0	 0.0	 0.0	 1	    1.00000	    0.00000	 400.0	 3	    1.05000	    0.95000;
	116	 2	 0.0	 0.0	 0.0	 0.0	 1	    1.03000	    0.00000	 220.0	 3	    1.11000	    0.95000;
	117	 2	 7.999	 14.999	 0.0	 0.0	 1	    1.03000	    0.00000	 220.0	 3	    1.11000	    0.95000;
	118	 2	 5.499	 9.999	 0.0	 0.0	 1	    1.03000	    0.00000	 220.0	 3	    1.11000	    0.95000;
	119	 1	 0.0	 0.0	 0.0	 0.0	 1	    1.03000	    0.00000	 220.0	 3	    1.11000	    0.95000;
	120	 1	 0.0	 0.0	 0.0	 0.0	 1	    1.00000	    0.00000	 400.0	 3	    1.05000	    0.95000;
	121	 1	 0.0	 0.0	 0.0	 0.0	 1	    1.00000	    0.00000	 400.0	 3	    1.05000	    0.95000;
	122	 1	 0.0	 0.0	 0.0	 0.0	 1	    1.00000	    0.00000	 400.0	 3	    1.05000	    0.95000;
	123	 1	 0.0	 0.0	 0.0	 0.0	 1	    1.00000	    0.00000	 400.0	 3	    1.05000	    0.95000;
	124	 1	 0.0	 0.0	 0.0	 0.0	 1	    1.03000	    0.00000	 220.0	 3	    1.11000	    0.95000;
	125	 2	 19.213	 21.474	 0.0	 0.0	 1	    1.03000	    0.00000	 220.0	 3	    1.11000	    0.95000;
	126	 2	 30.672	 33.602	 0.0	 0.0	 1	    1.03000	    0.00000	 220.0	 3	    1.11000	    0.95000;
	127	 2	 27.999	 65.999	 0.0	 0.0	 1	    1.00000	    0.00000	 400.0	 3	    1.05000	    0.95000;
	128	 1	 0.0	 0.0	 0.0	 0.0	 1	    1.00000	    0.00000	 400.0	 3	    1.05000	    0.95000;
	129	 1	 0.0	 0.0	 0.0	 0.0	 1	    1.03000	    0.00000	 220.0	 3	    1.11000	    0.95000;
	130	 1	 0.0	 0.0	 0.0	 0.0	 1	    1.03000	    0.00000	 220.0	 3	    1.11000	    0.95000;
	131	 1	 0.0	 0.0	 0.0	 0.0	 1	    1.03000	    0.00000	 220.0	 3	    1.11000	    0.95000;
	132	 2	 271.999	 -62.001	 0.0	 0.0	 1	    1.03000	    0.00000	 220.0	 3	    1.11000	    0.95000;
	133	 2	 266.5	 -24.8	 0.0	 0.0	 1	    1.03000	    0.00000	 220.0	 3	    1.11000	    0.95000;
	134	 2	 14.931	 12.88	 0.0	 0.0	 1	    1.03000	    0.00000	 220.0	 4	    1.11000	    0.95000;
	135	 2	 8.013	 6.525	 0.0	 0.0	 1	    1.03000	    0.00000	 220.0	 4	    1.11000	    0.95000;
	136	 1	 0.0	 0.0	 0.0	 0.0	 1	    1.03000	    0.00000	 220.0	 4	    1.11000	    0.95000;
	137	 1	 0.0	 0.0	 0.0	 0.0	 1	    1.03000	    0.00000	 220.0	 4	    1.11000	    0.95000;
	138	 1	 0.0	 0.0	 0.0	 0.0	 1	    1.00000	    0.00000	 400.0	 4	    1.05000	    0.95000;
	139	 1	 0.0	 0.0	 0.0	 0.0	 1	    1.00000	    0.00000	 400.0	 4	    1.05000	    0.95000;
	140	 1	 0.0	 0.0	 0.0	 0.0	 1	    1.03000	    0.00000	 220.0	 4	    1.11000	    0.95000;
	141	 1	 0.0	 0.0	 0.0	 0.0	 1	    1.03000	    0.00000	 220.0	 4	    1.11000	    0.95000;
	142	 1	 0.0	 0.0	 0.0	 0.0	 1	    1.03000	    0.00000	 220.0	 4	    1.11000	    0.95000;
	143	 1	 0.0	 0.0	 0.0	 0.0	 1	    1.03000	    0.00000	 220.0	 4	    1.11000	    0.95000;
	144	 1	 0.0	 0.0	 0.0	 0.0	 1	    1.03000	    0.00000	 220.0	 4	    1.11000	    0.95000;
	145	 1	 0.0	 0.0	 0.0	 0.0	 1	    1.03000	    0.00000	 220.0	 4	    1.11000	    0.95000;
	146	 2	 55.255	 6.955	 0.0	 0.0	 1	    1.03000	    0.00000	 220.0	 4	    1.11000	    0.95000;
	147	 2	 10.077	 8.4	 0.0	 0.0	 1	    1.03000	    0.00000	 220.0	 4	    1.11000	    0.95000;
	148	 2	 11.5	 6.86	 0.0	 0.0	 1	    1.03000	    0.00000	 220.0	 4	    1.11000	    0.95000;
	149	 1	 4.423	 1.347	 0.0	 0.0	 1	    1.03000	    0.00000	 220.0	 4	    1.11000	    0.95000;
	150	 2	 12.633	 6.828	 0.0	 0.0	 1	    1.00000	    0.00000	 400.0	 4	    1.05000	    0.95000;
	151	 2	 12.397	 10.045	 0.0	 0.0	 1	    1.00000	    0.00000	 400.0	 4	    1.05000	    0.95000;
	152	 1	 0.0	 0.0	 0.0	 0.0	 1	    1.03000	    0.00000	 220.0	 4	    1.11000	    0.95000;
	153	 1	 0.0	 0.0	 0.0	 0.0	 1	    1.03000	    0.00000	 220.0	 4	    1.11000	    0.95000;
	154	 1	 0.0	 0.0	 0.0	 0.0	 1	    1.03000	    0.00000	 220.0	 4	    1.11000	    0.95000;
	155	 2	 33.593	 44.976	 0.0	 0.0	 1	    1.03000	    0.00000	 220.0	 4	    1.11000	    0.95000;
	156	 2	 33.832	 45.07	 0.0	 0.0	 1	    1.03000	    0.00000	 220.0	 4	    1.11000	    0.95000;
	157	 1	 0.0	 0.0	 0.0	 0.0	 1	    1.03000	    0.00000	 220.0	 4	    1.11000	    0.95000;
	158	 1	 0.0	 0.0	 0.0	 0.0	 1	    1.00000	    0.00000	 400.0	 4	    1.05000	    0.95000;
	159	 2	 8.687	 17.49	 0.0	 0.0	 1	    1.00000	    0.00000	 400.0	 4	    1.05000	    0.95000;
	160	 1	 0.0	 0.0	 0.0	 0.0	 1	    1.03000	    0.00000	 220.0	 4	    1.11000	    0.95000;
	161	 1	 0.0	 0.0	 0.0	 0.0	 1	    1.03000	    0.00000	 220.0	 4	    1.11000	    0.95000;
	162	 1	 0.0	 0.0	 0.0	 0.0	 1	    1.00000	    0.00000	 400.0	 4	    1.05000	    0.95000;
	163	 1	 0.0	 0.0	 0.0	 0.0	 1	    1.00000	    0.00000	 400.0	 4	    1.05000	    0.95000;
	164	 1	 0.0	 0.0	 0.0	 0.0	 1	    1.00000	    0.00000	 400.0	 4	    1.05000	    0.95000;
	165	 2	 5.495	 9.587	 0.0	 0.0	 1	    1.03000	    0.00000	 220.0	 4	    1.11000	    0.95000;
	166	 2	 10.099	 4.886	 0.0	 0.0	 1	    1.03000	    0.00000	 220.0	 4	    1.11000	    0.95000;
	167	 1	 14.36	 13.623	 0.0	 0.0	 1	    1.03000	    0.00000	 220.0	 4	    1.11000	    0.95000;
	168	 1	 0.0	 0.0	 0.0	 0.0	 1	    1.03000	    0.00000	 220.0	 4	    1.11000	    0.95000;
	169	 1	 0.0	 0.0	 0.0	 0.0	 1	    1.03000	    0.00000	 220.0	 4	    1.11000	    0.95000;
	170	 1	 0.0	 0.0	 0.0	 0.0	 1	    1.03000	    0.00000	 220.0	 4	    1.11000	    0.95000;
	171	 1	 0.0	 0.0	 0.0	 0.0	 1	    1.03000	    0.00000	 220.0	 4	    1.11000	    0.95000;
	172	 1	 0.0	 0.0	 0.0	 0.0	 1	    1.00000	    0.00000	 400.0	 4	    1.05000	    0.95000;
	173	 1	 0.0	 0.0	 0.0	 0.0	 1	    1.00000	    0.00000	 400.0	 4	    1.05000	    0.95000;
	174	 1	 0.0	 0.0	 0.0	 0.0	 1	    1.03000	    0.00000	 220.0	 4	    1.11000	    0.95000;
	175	 1	 0.0	 0.0	 0.0	 0.0	 1	    1.03000	    0.00000	 220.0	 4	    1.11000	    0.95000;
	176	 1	 0.0	 0.0	 0.0	 0.0	 1	    1.03000	    0.00000	 220.0	 4	    1.11000	    0.95000;
	177	 1	 0.0	 0.0	 0.0	 0.0	 1	    1.03000	    0.00000	 220.0	 4	    1.11000	    0.95000;
	178	 1	 0.0	 0.0	 0.0	 0.0	 1	    1.03000	    0.00000	 220.0	 4	    1.11000	    0.95000;
	179	 1	 0.0	 0.0	 0.0	 0.0	 1	    1.03000	    0.00000	 220.0	 4	    1.11000	    0.95000;
	180	 1	 0.0	 0.0	 0.0	 0.0	 1	    1.03000	    0.00000	 220.0	 4	    1.11000	    0.95000;
	181	 1	 0.0	 0.0	 0.0	 0.0	 1	    1.03000	    0.00000	 220.0	 4	    1.11000	    0.95000;
	182	 1	 0.0	 0.0	 0.0	 0.0	 1	    1.03000	    0.00000	 220.0	 5	    1.11000	    0.95000;
	183	 1	 0.0	 0.0	 0.0	 0.0	 1	    1.03000	    0.00000	 220.0	 5	    1.11000	    0.95000;
	184	 1	 0.0	 0.0	 0.0	 0.0	 1	    1.00000	    0.00000	 400.0	 5	    1.05000	    0.95000;
	185	 1	 0.0	 0.0	 0.0	 0.0	 1	    1.00000	    0.00000	 400.0	 5	    1.05000	    0.95000;
	186	 1	 0.0	 0.0	 0.0	 0.0	 1	    1.00000	    0.00000	 400.0	 5	    1.05000	    0.95000;
	187	 1	 0.0	 0.0	 0.0	 0.0	 1	    1.00000	    0.00000	 400.0	 5	    1.05000	    0.95000;
	188	 1	 0.0	 0.0	 0.0	 0.0	 1	    1.03000	    0.00000	 220.0	 5	    1.11000	    0.95000;
	189	 1	 0.0	 0.0	 0.0	 0.0	 1	    1.03000	    0.00000	 220.0	 5	    1.11000	    0.95000;
	190	 1	 0.0	 0.0	 0.0	 0.0	 1	    1.03000	    0.00000	 220.0	 5	    1.11000	    0.95000;
	191	 1	 0.0	 0.0	 0.0	 0.0	 1	    1.03000	    0.00000	 220.0	 5	    1.11000	    0.95000;
	192	 1	 0.0	 0.0	 0.0	 0.0	 1	    1.00000	    0.00000	 400.0	 5	    1.05000	    0.95000;
	193	 1	 0.0	 0.0	 0.0	 0.0	 1	    1.03000	    0.00000	 220.0	 5	    1.11000	    0.95000;
	194	 1	 0.0	 0.0	 0.0	 0.0	 1	    1.03000	    0.00000	 220.0	 5	    1.11000	    0.95000;
	195	 1	 0.0	 0.0	 0.0	 0.0	 1	    1.00000	    0.00000	 400.0	 5	    1.05000	    0.95000;
	196	 1	 0.0	 0.0	 0.0	 0.0	 1	    1.00000	    0.00000	 400.0	 5	    1.05000	    0.95000;
	197	 1	 0.0	 0.0	 0.0	 0.0	 1	    1.03000	    0.00000	 220.0	 5	    1.11000	    0.95000;
	198	 1	 0.0	 0.0	 0.0	 0.0	 1	    1.03000	    0.00000	 220.0	 5	    1.11000	    0.95000;
	199	 1	 0.0	 0.0	 0.0	 0.0	 1	    1.00000	    0.00000	 400.0	 5	    1.05000	    0.95000;
	200	 1	 0.0	 0.0	 0.0	 0.0	 1	    1.00000	    0.00000	 400.0	 5	    1.05000	    0.95000;
...
];

%% generator data
%	bus	Pg	Qg	Qmax	Qmin	Vg	mBase	status	Pmax	Pmin
mpc.gen = [
	17	 170.0	 55.0	 120.0	 -10.0	 1.03	 233.2	 1	 200.0	 140.0;
	18	 170.0	 55.0	 120.0	 -10.0	 1.03	 233.2	 1	 200.0	 140.0;
	26	 0.0	 0.0	 220.0	 -10.0	 1.03	 430.5	 0	 370.0	 290.0;
	26	 325.0	 105.0	 220.0	 -10.0	 1.03	 421.9	 1	 360.0	 290.0;
	27	 325.0	 105.0	 220.0	 -10.0	 1.03	 421.9	 1	 360.0	 290.0;
	27	 330.0	 105.0	 220.0	 -10.0	 1.03	 430.5	 1	 370.0	 290.0;
	27	 330.0	 105.0	 220.0	 -10.0	 1.03	 430.5	 1	 370.0	 290.0;
	28	 0.0	 0.0	 220.0	 -10.0	 1.0	 430.5	 0	 370.0	 290.0;
	28	 330.0	 105.0	 220.0	 -10.0	 1.0	 430.5	 1	 370.0	 290.0;
	28	 330.0	 105.0	 220.0	 -10.0	 1.0	 430.5	 1	 370.0	 290.0;
	29	 330.0	 105.0	 220.0	 -10.0	 1.0	 430.5	 1	 370.0	 290.0;
	29	 330.0	 105.0	 220.0	 -10.0	 1.0	 430.5	 1	 370.0	 290.0;
	29	 330.0	 105.0	 220.0	 -10.0	 1.0	 430.5	 1	 370.0	 290.0;
	43	 175.0	 50.0	 120.0	 -20.0	 1.03	 246.2	 1	 215.0	 135.0;
	43	 0.0	 0.0	 120.0	 -20.0	 1.03	 275.3	 0	 247.8	 135.0;
	43	 0.0	 0.0	 120.0	 -20.0	 1.03	 275.3	 0	 247.8	 135.0;
	44	 180.0	 50.0	 120.0	 -20.0	 1.03	 255.0	 1	 225.0	 135.0;
	44	 180.0	 50.0	 120.0	 -20.0	 1.03	 255.0	 1	 225.0	 135.0;
	44	 0.0	 0.0	 120.0	 -20.0	 1.03	 255.0	 0	 225.0	 135.0;
	45	 0.0	 0.0	 350.0	 -40.0	 1.0	 610.3	 0	 500.0	 350.0;
	45	 425.0	 155.0	 350.0	 -40.0	 1.0	 610.3	 1	 500.0	 350.0;
	55	 177.5	 50.0	 120.0	 -20.0	 1.03	 255.0	 1	 225.0	 130.0;
	56	 177.5	 50.0	 120.0	 -20.0	 1.03	 255.0	 1	 225.0	 130.0;
	56	 0.0	 0.0	 120.0	 -20.0	 1.03	 255.0	 0	 225.0	 130.0;
	57	 177.5	 50.0	 120.0	 -20.0	 1.0	 255.0	 1	 225.0	 130.0;
	58	 0.0	 0.0	 120.0	 -20.0	 1.0	 255.0	 0	 225.0	 130.0;
	58	 177.5	 50.0	 120.0	 -20.0	 1.0	 255.0	 1	 225.0	 130.0;
	58	 0.0	 0.0	 120.0	 -20.0	 1.0	 255.0	 0	 225.0	 130.0;
	59	 63.0	 14.4	 28.8	 0.0	 1.03	 69.3	 1	 63.0	 63.0;
	78	 182.5	 55.0	 105.0	 5.0	 1.03	 248.3	 1	 225.0	 140.0;
	78	 182.5	 55.0	 105.0	 5.0	 1.03	 248.3	 1	 225.0	 140.0;
	79	 0.0	 0.0	 105.0	 5.0	 1.03	 243.8	 0	 220.0	 140.0;
	79	 0.0	 0.0	 105.0	 5.0	 1.03	 248.3	 0	 225.0	 140.0;
	79	 182.5	 55.0	 105.0	 5.0	 1.03	 248.3	 1	 225.0	 140.0;
	82	 300.0	 77.5	 192.0	 -37.0	 1.0	 425.8	 1	 380.0	 220.0;
	82	 295.0	 73.151	 174.0	 -27.698	 1.0	 408.9	 1	 370.0	 220.0;
	104	 172.5	 32.5	 113.0	 -48.0	 1.03	 251.8	 1	 225.0	 120.0;
	105	 0.0	 0.0	 113.0	 -48.0	 1.03	 251.8	 0	 225.0	 134.0;
	106	 99.5	 42.5	 90.0	 -5.0	 1.03	 150.0	 1	 120.0	 79.0;
	107	 99.5	 42.5	 90.0	 -5.0	 1.03	 150.0	 1	 120.0	 79.0;
	116	 0.0	 0.0	 90.0	 -20.0	 1.03	 150.0	 0	 120.0	 90.0;
	117	 95.0	 35.0	 90.0	 -20.0	 1.03	 150.0	 1	 120.0	 70.0;
	118	 95.0	 50.5	 68.0	 33.0	 1.03	 129.3	 1	 110.0	 80.0;
	125	 187.5	 51.0	 113.0	 -11.0	 1.03	 242.9	 1	 215.0	 160.0;
	126	 182.5	 39.5	 84.0	 -5.0	 1.03	 240.2	 1	 225.0	 140.0;
	126	 0.0	 0.0	 80.0	 -5.0	 1.03	 229.4	 0	 215.0	 160.0;
	127	 182.5	 35.75	 79.0	 -7.5	 1.0	 238.5	 1	 225.0	 140.0;
	127	 190.0	 45.0	 100.0	 -10.0	 1.0	 241.7	 1	 220.0	 160.0;
	132	 0.0	 0.0	 0.0	 0.0	 1.03	 0.0	 0	 0.0	 0.0;
	132	 0.0	 0.0	 0.0	 0.0	 1.03	 0.0	 0	 0.0	 0.0;
	133	 0.0	 0.0	 0.0	 0.0	 1.03	 0.0	 0	 0.0	 0.0;
	133	 0.0	 0.0	 0.0	 0.0	 1.03	 0.0	 0	 0.0	 0.0;
	134	 0.0	 0.0	 90.0	 0.0	 1.03	 150.0	 0	 120.0	 102.0;
	134	 110.0	 45.0005	 90.001	 0.0	 1.03	 150.0	 1	 120.0	 100.0;
	135	 0.0	 0.0	 90.0	 0.0	 1.03	 150.0	 0	 120.0	 102.0;
	146	 40.0	 5.9995	 12.0	 -0.001	 1.03	 51.4	 1	 50.0	 30.0;
	146	 40.0	 5.9995	 12.0	 -0.001	 1.03	 51.4	 1	 50.0	 30.0;
	147	 0.0	 0.0	 90.0	 0.0	 1.03	 150.0	 0	 120.0	 90.0;
	148	 156.0	 60.0	 120.0	 0.0	 1.03	 252.4	 1	 222.0	 90.0;
	148	 0.0	 0.0	 120.0	 0.0	 1.03	 237.5	 0	 205.0	 135.0;
	148	 0.0	 0.0	 120.0	 0.0	 1.03	 237.5	 0	 205.0	 135.0;
	148	 156.0	 60.0	 120.0	 0.0	 1.03	 252.4	 1	 222.0	 90.0;
	150	 156.0	 60.0	 120.0	 0.0	 1.0	 252.4	 1	 222.0	 90.0;
	151	 156.0	 60.0	 120.0	 0.0	 1.0	 252.4	 1	 222.0	 90.0;
	151	 0.0	 0.0	 120.0	 0.0	 1.0	 252.4	 0	 222.0	 90.0;
	155	 164.5	 60.0	 120.0	 0.0	 1.03	 263.9	 1	 235.0	 94.0;
	155	 164.5	 60.0	 120.0	 0.0	 1.03	 263.9	 1	 235.0	 94.0;
	155	 0.0	 0.0	 120.0	 0.0	 1.03	 237.5	 0	 205.0	 130.0;
	155	 182.5	 60.0	 120.0	 0.0	 1.03	 287.3	 1	 261.0	 104.0;
	156	 0.0	 0.0	 120.0	 0.0	 1.03	 237.5	 0	 205.0	 130.0;
	156	 167.5	 60.0	 120.0	 0.0	 1.03	 237.5	 1	 205.0	 130.0;
	156	 163.0	 60.0	 120.0	 0.0	 1.03	 238.4	 1	 206.0	 120.0;
	156	 163.0	 60.0	 120.0	 0.0	 1.03	 238.4	 1	 206.0	 120.0;
	159	 163.0	 60.0	 120.0	 0.0	 1.0	 238.4	 1	 206.0	 120.0;
	165	 175.0	 60.0	 120.0	 0.0	 1.03	 233.2	 1	 200.0	 150.0;
	165	 0.0	 0.0	 120.0	 0.0	 1.03	 233.2	 0	 200.0	 150.0;
	166	 175.0	 60.0	 120.0	 0.0	 1.03	 233.2	 1	 200.0	 150.0;
	165	 0.0	 0.0	 120.0	 0.0	 1.03	 233.2	 0	 200.0	 150.0;
	205	 0.0	 25.0	 80.0	 -30.0	 1.0	 196.1	 1	 0.0	 0.0;
	205	 0.0	 25.0	 80.0	 -30.0	 1.0	 196.1	 1	 0.0	 0.0;
	205	 0.0	 25.0	 80.0	 -30.0	 1.0	 196.1	 1	 0.0	 0.0;
	206	 0.0	 25.0	 80.0	 -30.0	 1.0	 196.1	 1	 0.0	 0.0;
	215	 37.079	 10.0	 20.0	 0.0	 1.035	 58.5	 1	 37.079	 37.079;
	215	 33.708	 10.0	 20.0	 0.0	 1.035	 53.9	 1	 33.708	 33.708;
	215	 33.708	 10.0	 20.0	 0.0	 1.035	 53.9	 1	 33.708	 33.708;
	215	 15.506	 10.0	 20.0	 0.0	 1.035	 30.5	 1	 15.506	 15.506;
	229	 5.5	 0.75	 1.5	 0.0	 1.035	 7.3	 1	 5.5	 5.5;
	230	 5.5	 3.5	 7.0	 0.0	 1.035	 10.0	 1	 5.5	 5.5;
	239	 3.0	 4.0	 8.0	 0.0	 1.035	 15.4	 1	 3.0	 3.0;
	246	 330.0	 103.0	 220.0	 -14.0	 1.035	 430.5	 1	 370.0	 290.0;
	291	 2.0	 1.0	 2.0	 0.0	 1.035	 3.2	 1	 2.0	 2.0;
	294	 2.0	 1.0	 2.0	 0.0	 1.035	 4.8	 1	 2.0	 2.0;
	306	 9.167	 3.5	 7.0	 0.0	 1.035	 24.0	 1	 9.167	 9.167;
	306	 16.296	 3.5	 7.0	 0.0	 1.035	 27.9	 1	 16.296	 16.296;
	306	 11.204	 6.8085	 7.617	 6.0	 1.035	 31.0	 1	 11.204	 11.204;
	306	 9.167	 3.5	 7.0	 0.0	 1.035	 26.9	 1	 9.167	 9.167;
	306	 9.167	 3.9645	 7.929	 0.0	 1.035	 28.1	 1	 9.167	 9.167;
	307	 36.5	 7.5	 15.0	 0.0	 1.035	 57.0	 1	 36.5	 36.5;
	307	 36.5	 7.5	 15.0	 0.0	 1.035	 57.0	 1	 36.5	 36.5;
	308	 32.0	 7.5	 15.0	 0.0	 1.035	 36.7	 1	 32.0	 32.0;
	308	 40.0	 8.4145	 16.829	 0.0	 1.035	 57.5	 1	 40.0	 40.0;
	310	 35.0	 10.0	 20.0	 0.0	 1.035	 53.9	 1	 35.0	 35.0;
	310	 75.0	 12.7995	 25.599	 0.0	 1.035	 103.2	 1	 75.0	 75.0;
	311	 45.0	 20.0	 40.0	 0.0	 1.035	 64.0	 1	 45.0	 45.0;
	319	 2.0	 1.5	 3.0	 0.0	 1.035	 4.1	 1	 2.0	 2.0;
	345	 1.0	 0.5	 1.0	 0.0	 1.035	 1.9	 1	 1.0	 1.0;
	362	 40.0	 6.0	 12.0	 0.0	 1.035	 47.8	 1	 40.0	 40.0;
	363	 40.0	 6.0	 12.0	 0.0	 1.035	 47.8	 1	 40.0	 40.0;
	364	 0.0	 0.0	 12.0	 0.0	 1.035	 47.8	 0	 0.0	 0.0;
	364	 46.0	 6.0	 12.0	 0.0	 1.035	 71.0	 1	 46.0	 46.0;
	365	 40.0	 6.0	 12.0	 0.0	 1.035	 47.8	 1	 40.0	 40.0;
	365	 40.0	 6.0	 12.0	 0.0	 1.035	 47.8	 1	 40.0	 40.0;
	368	 1.0	 0.5	 1.0	 0.0	 1.035	 1.9	 1	 1.0	 1.0;
	382	 35.0	 5.0	 10.0	 0.0	 1.035	 55.9	 1	 55.0	 15.0;
	382	 173.0	 55.0	 120.0	 -10.0	 1.035	 255.9	 1	 226.0	 120.0;
	383	 35.0	 5.0	 10.0	 0.0	 1.035	 55.9	 1	 55.0	 15.0;
	386	 2.5	 1.0	 2.0	 0.0	 1.035	 4.8	 1	 2.5	 2.5;
	395	 1.0	 0.5	 1.0	 0.0	 1.035	 1.9	 1	 1.0	 1.0;
	421	 4.0	 2.0	 4.0	 0.0	 1.035	 7.7	 1	 4.0	 4.0;
	426	 3.0	 1.5	 3.0	 0.0	 1.035	 4.5	 1	 3.0	 3.0;
	431	 5.0	 4.0	 8.0	 0.0	 1.035	 13.6	 1	 5.0	 5.0;
	440	 2.0	 1.0	 2.0	 0.0	 1.035	 3.6	 1	 2.0	 2.0;
	447	 3.5	 10.0	 20.0	 0.0	 1.035	 21.3	 1	 3.5	 3.5;
	447	 3.5	 10.0	 20.0	 0.0	 1.035	 21.3	 1	 3.5	 3.5;
	463	 0.0	 1.0	 2.0	 0.0	 1.035	 4.0	 1	 0.0	 0.0;
	482	 1.4	 0.35	 0.7	 0.0	 1.035	 1.7	 1	 1.4	 1.4;
	490	 3.0	 1.5	 3.0	 0.0	 1.035	 5.3	 1	 3.0	 3.0;
	522	 0.0	 0.5	 1.0	 0.0	 1.035	 1.9	 1	 0.0	 0.0;
	533	 0.5	 0.5	 1.0	 0.0	 1.035	 1.9	 1	 0.5	 0.5;
	534	 35.89	 7.0	 14.0	 0.0	 1.035	 53.9	 1	 35.89	 35.89;
	534	 22.086	 7.0	 14.0	 0.0	 1.035	 34.9	 1	 22.086	 22.086;
	534	 22.086	 7.0	 14.0	 0.0	 1.035	 34.9	 1	 22.086	 22.086;
	534	 72.469	 7.0	 14.0	 0.0	 1.035	 105.9	 1	 72.469	 72.469;
	534	 72.469	 7.0	 14.0	 0.0	 1.035	 105.9	 1	 72.469	 72.469;
	535	 24.573	 8.75	 17.5	 0.0	 1.035	 36.5	 1	 24.573	 24.573;
	535	 23.805	 8.75	 17.5	 0.0	 1.035	 35.6	 1	 23.805	 23.805;
	535	 95.99	 8.75	 17.5	 0.0	 1.035	 126.2	 1	 95.99	 95.99;
	535	 80.631	 8.75	 17.5	 0.0	 1.035	 106.4	 1	 80.631	 80.631;
	549	 1.0	 0.35	 0.7	 0.0	 1.035	 1.7	 1	 1.0	 1.0;
	557	 25.724	 2.5255	 5.051	 0.0	 1.035	 34.4	 1	 25.724	 25.724;
	557	 21.184	 2.5255	 5.051	 0.0	 1.035	 28.5	 1	 21.184	 21.184;
	557	 19.671	 2.5	 5.0	 0.0	 1.035	 26.5	 1	 19.671	 19.671;
	557	 22.697	 2.5255	 5.051	 0.0	 1.035	 30.4	 1	 22.697	 22.697;
	557	 25.724	 2.5255	 5.051	 0.0	 1.035	 34.4	 1	 25.724	 25.724;
	558	 31.032	 2.532	 5.064	 0.0	 1.035	 34.4	 1	 31.032	 31.032;
	558	 31.032	 2.532	 5.064	 0.0	 1.035	 34.4	 1	 31.032	 31.032;
	558	 22.817	 2.5	 5.0	 0.0	 1.035	 26.5	 1	 22.817	 22.817;
	558	 30.119	 2.532	 5.064	 0.0	 1.035	 34.4	 1	 30.119	 30.119;
	581	 3.0	 1.5	 3.0	 0.0	 1.035	 5.3	 1	 3.0	 3.0;
	594	 2.07	 0.54	 1.08	 0.0	 1.035	 4.4	 1	 2.07	 2.07;
	601	 4.05	 0.9	 1.8	 0.0	 1.035	 4.4	 1	 4.05	 4.05;
	622	 110.0	 14.9995	 30.0	 -0.001	 1.035	 114.0	 1	 110.0	 110.0;
	622	 0.0	 0.0	 30.0	 0.0	 1.035	 65.3	 0	 0.0	 0.0;
	626	 2.25	 0.45	 0.9	 0.0	 1.035	 2.4	 1	 2.25	 2.25;
	630	 4.5	 1.26	 2.52	 0.0	 1.035	 5.2	 1	 4.5	 4.5;
	631	 5.4	 1.26	 2.52	 0.0	 1.035	 6.0	 1	 5.4	 5.4;
	655	 0.81	 0.18	 0.36	 0.0	 1.035	 0.9	 1	 0.81	 0.81;
	660	 180.0	 50.0	 120.0	 -20.0	 1.035	 255.0	 1	 225.0	 135.0;
	661	 180.0	 50.0	 120.0	 -20.0	 1.035	 255.0	 1	 225.0	 135.0;
	667	 1.89	 0.36	 0.72	 0.0	 1.035	 2.0	 1	 1.89	 1.89;
	671	 7.65	 1.35	 2.7	 0.0	 1.035	 8.6	 1	 7.65	 7.65;
	673	 2.7	 0.45	 0.9	 0.0	 1.035	 4.4	 1	 2.7	 2.7;
	681	 190.0	 15.0	 30.0	 0.0	 1.035	 192.4	 1	 190.0	 190.0;
	681	 24.998	 15.0	 30.0	 0.0	 1.035	 77.5	 1	 24.998	 24.998;
	687	 9.0	 2.25	 4.5	 0.0	 1.035	 10.1	 1	 9.0	 9.0;
	699	 5.4	 1.35	 2.7	 0.0	 1.035	 6.0	 1	 5.4	 5.4;
	702	 0.9	 0.45	 0.9	 0.0	 1.035	 1.3	 1	 0.9	 0.9;
	712	 9.0	 1.0	 2.0	 0.0	 1.035	 9.2	 1	 9.0	 9.0;
	718	 1.44	 0.18	 0.36	 0.0	 1.035	 1.5	 1	 1.44	 1.44;
	722	 2.25	 0.45	 0.9	 0.0	 1.035	 2.4	 1	 2.25	 2.25;
	731	 1.35	 0.225	 0.45	 0.0	 1.035	 4.3	 1	 1.35	 1.35;
	736	 177.5	 50.0	 120.0	 -20.0	 1.035	 255.0	 1	 225.0	 130.0;
	740	 1.8	 0.0	 0.0	 0.0	 1.035	 4.3	 1	 1.8	 1.8;
	747	 4.68	 1.35	 2.7	 0.0	 1.035	 5.4	 1	 4.68	 4.68;
	759	 90.0	 15.0	 30.0	 0.0	 1.035	 105.2	 1	 90.0	 90.0;
	760	 0.0	 0.0	 0.0	 0.0	 1.035	 1.3	 0	 0.0	 0.0;
	778	 9.0	 15.0	 30.0	 0.0	 1.035	 31.3	 1	 9.0	 9.0;
	780	 1.26	 0.315	 0.63	 0.0	 1.035	 1.4	 1	 1.26	 1.26;
	783	 6.0	 1.5	 3.0	 0.0	 1.035	 6.7	 1	 6.0	 6.0;
	788	 2.0	 0.5	 1.0	 0.0	 1.035	 95.9	 1	 2.0	 2.0;
	792	 0.0	 0.0	 23.0	 0.0	 1.035	 71.8	 0	 0.0	 0.0;
	792	 0.0	 0.0	 23.0	 0.0	 1.035	 71.8	 0	 0.0	 0.0;
	792	 0.0	 0.0	 11.0	 0.0	 1.035	 23.7	 0	 0.0	 0.0;
	792	 0.0	 0.0	 10.0	 0.0	 1.035	 23.3	 0	 0.0	 0.0;
	803	 27.5	 5.0	 10.0	 0.0	 1.035	 55.9	 1	 55.0	 0.0;
	804	 60.0	 5.0	 10.0	 0.0	 1.035	 120.4	 1	 120.0	 0.0;
	809	 0.0	 0.0	 0.0	 0.0	 1.035	 3.3	 0	 0.0	 0.0;
	815	 2.7	 0.81	 1.62	 0.0	 1.035	 3.1	 1	 2.7	 2.7;
	834	 0.9	 0.0	 0.0	 0.0	 1.035	 1.5	 1	 0.9	 0.9;
	840	 25.0	 2.796	 5.592	 0.0	 1.035	 51.3	 1	 25.0	 25.0;
	840	 25.0	 2.796	 5.592	 0.0	 1.035	 51.3	 1	 25.0	 25.0;
	844	 1.9	 0.1555	 0.311	 0.0	 1.035	 3.5	 1	 1.9	 1.9;
	848	 3.011	 0.0055	 0.011	 0.0	 1.035	 5.6	 1	 3.011	 3.011;
	854	 7.0	 0.466	 0.932	 0.0	 1.035	 14.5	 1	 7.0	 7.0;
	873	 68.0	 20.6	 41.2	 0.0	 1.035	 87.7	 1	 68.0	 68.0;
	876	 0.0	 0.0	 0.0	 0.0	 1.035	 1.9	 0	 0.0	 0.0;
	896	 0.0	 0.0	 45.0	 -10.0	 1.035	 65.8	 0	 0.0	 0.0;
	896	 0.0	 0.0	 45.0	 -10.0	 1.035	 71.1	 0	 0.0	 0.0;
	896	 40.0	 17.5	 45.0	 -10.0	 1.035	 71.1	 1	 40.0	 40.0;
	902	 0.111	 0.0055	 0.011	 0.0	 1.035	 0.3	 1	 0.111	 0.111;
...
];

%% generator cost data
%	2	startup	shutdown	n	c(n-1)	...	c0
mpc.gencost = [
2	0.0	0.0	3	0.2	112.780000	0.000000;
2	0.0	0.0	3	0.2	112.780000	0.000000;
2	0.0	0.0	3	0.2	76.100000	0.000000;
2	0.0	0.0	3	0.2	76.100000	0.000000;
2	0.0	0.0	3	0.2	76.100000	0.000000;
2	0.0	0.0	3	0.2	76.100000	0.000000;
2	0.0	0.0	3	0.2	76.100000	0.000000;
2	0.0	0.0	3	0.2	76.100000	0.000000;
2	0.0	0.0	3	0.2	76.100000	0.000000;
2	0.0	0.0	3	0.2	76.100000	0.000000;
2	0.0	0.0	3	0.2	76.100000	0.000000;
2	0.0	0.0	3	0.2	76.100000	0.000000;
2	0.0	0.0	3	0.2	76.100000	0.000000;
2	0.0	0.0	3	0.2	102.050000	0.000000;
2	0.0	0.0	3	0.2	102.050000	0.000000;
2	0.0	0.0	3	0.2	102.050000	0.000000;
2	0.0	0.0	3	0.2	102.050000	0.000000;
2	0.0	0.0	3	0.2	102.050000	0.000000;
2	0.0	0.0	3	0.2	102.050000	0.000000;
2	0.0	0.0	3	0.2	102.050000	0.000000;
2	0.0	0.0	3	0.2	102.050000	0.000000;
2	0.0	0.0	3	0.2	105.350000	0.000000;
2	0.0	0.0	3	0.2	105.350000	0.000000;
2	0.0	0.0	3	0.2	105.350000	0.000000;
2	0.0	0.0	3	0.2	105.350000	0.000000;
2	0.0	0.0	3	0.2	105.350000	0.000000;
2	0.0	0.0	3	0.2	105.350000	0.000000;
2	0.0	0.0	3	0.2	105.350000	0.000000;
	2	 0.0	 0.0	 3	   0.000000	   0.000000	   0.000000;
2	0.0	0.0	3	0.2	95.310000	0.000000;
2	0.0	0.0	3	0.2	95.310000	0.000000;
2	0.0	0.0	3	0.2	95.310000	0.000000;
2	0.0	0.0	3	0.2	95.310000	0.000000;
2	0.0	0.0	3	0.2	95.310000	0.000000;
2	0.0	0.0	3	0.2	90.030000	0.000000;
2	0.0	0.0	3	0.2	90.030000	0.000000;
2	0.0	0.0	3	0.2	92.780000	0.000000;
2	0.0	0.0	3	0.2	92.780000	0.000000;
2	0.0	0.0	3	0.2	94.090000	0.000000;
2	0.0	0.0	3	0.2	94.090000	0.000000;
2	0.0	0.0	3	0.2	97.120000	0.000000;
2	0.0	0.0	3	0.2	97.120000	0.000000;
2	0.0	0.0	3	0.2	99.520000	0.000000;
2	0.0	0.0	3	0.2	91.160000	0.000000;
2	0.0	0.0	3	0.2	91.160000	0.000000;
2	0.0	0.0	3	0.2	91.160000	0.000000;
2	0.0	0.0	3	0.2	91.160000	0.000000;
2	0.0	0.0	3	0.2	91.160000	0.000000;
2	0.0	0.0	3	0.2	0.010000	0.000000;
2	0.0	0.0	3	0.2	0.010000	0.000000;
2	0.0	0.0	3	0.2	0.010000	0.000000;
2	0.0	0.0	3	0.2	0.010000	0.000000;
2	0.0	0.0	3	0.2	92.430000	0.000000;
2	0.0	0.0	3	0.2	92.430000	0.000000;
2	0.0	0.0	3	0.2	92.430000	0.000000;
2	0.0	0.0	3	0.2	96.420000	0.000000;
2	0.0	0.0	3	0.2	96.420000	0.000000;
2	0.0	0.0	3	0.2	96.420000	0.000000;
2	0.0	0.0	3	0.2	116.010000	0.000000;
2	0.0	0.0	3	0.2	116.010000	0.000000;
2	0.0	0.0	3	0.2	116.010000	0.000000;
2	0.0	0.0	3	0.2	116.010000	0.000000;
2	0.0	0.0	3	0.2	116.010000	0.000000;
2	0.0	0.0	3	0.2	116.010000	0.000000;
2	0.0	0.0	3	0.2	116.010000	0.000000;
2	0.0	0.0	3	0.2	98.840000	0.000000;
2	0.0	0.0	3	0.2	98.840000	0.000000;
2	0.0	0.0	3	0.2	98.840000	0.000000;
2	0.0	0.0	3	0.2	98.840000	0.000000;
2	0.0	0.0	3	0.2	98.840000	0.000000;
2	0.0	0.0	3	0.2	98.840000	0.000000;
2	0.0	0.0	3	0.2	98.840000	0.000000;
2	0.0	0.0	3	0.2	98.840000	0.000000;
2	0.0	0.0	3	0.2	98.840000	0.000000;
2	0.0	0.0	3	0.2	89.220000	0.000000;
2	0.0	0.0	3	0.2	89.220000	0.000000;
2	0.0	0.0	3	0.2	89.220000	0.000000;
2	0.0	0.0	3	0.2	89.220000	0.000000;
2	0.0	0.0	3	0.2	0.010000	0.000000;
2	0.0	0.0	3	0.2	0.010000	0.000000;
2	0.0	0.0	3	0.2	0.010000	0.000000;
2	0.0	0.0	3	0.2	0.010000	0.000000;
	2	 0.0	 0.0	 3	   0.000000	   0.000000	   0.000000;
	2	 0.0	 0.0	 3	   0.000000	   0.000000	   0.000000;
	2	 0.0	 0.0	 3	   0.000000	   0.000000	   0.000000;
	2	 0.0	 0.0	 3	   0.000000	   0.000000	   0.000000;
	2	 0.0	 0.0	 3	   0.000000	   0.000000	   0.000000;
	2	 0.0	 0.0	 3	   0.000000	   0.000000	   0.000000;
	2	 0.0	 0.0	 3	   0.000000	   0.000000	   0.000000;
2	0.0	0.0	3	0.2	76.100000	0.000000;
	2	 0.0	 0.0	 3	   0.000000	   0.000000	   0.000000;
	2	 0.0	 0.0	 3	   0.000000	   0.000000	   0.000000;
	2	 0.0	 0.0	 3	   0.000000	   0.000000	   0.000000;
	2	 0.0	 0.0	 3	   0.000000	   0.000000	   0.000000;
	2	 0.0	 0.0	 3	   0.000000	   0.000000	   0.000000;
	2	 0.0	 0.0	 3	   0.000000	   0.000000	   0.000000;
	2	 0.0	 0.0	 3	   0.000000	   0.000000	   0.000000;
	2	 0.0	 0.0	 3	   0.000000	   0.000000	   0.000000;
	2	 0.0	 0.0	 3	   0.000000	   0.000000	   0.000000;
	2	 0.0	 0.0	 3	   0.000000	   0.000000	   0.000000;
	2	 0.0	 0.0	 3	   0.000000	   0.000000	   0.000000;
	2	 0.0	 0.0	 3	   0.000000	   0.000000	   0.000000;
	2	 0.0	 0.0	 3	   0.000000	   0.000000	   0.000000;
	2	 0.0	 0.0	 3	   0.000000	   0.000000	   0.000000;
	2	 0.0	 0.0	 3	   0.000000	   0.000000	   0.000000;
	2	 0.0	 0.0	 3	   0.000000	   0.000000	   0.000000;
	2	 0.0	 0.0	 3	   0.000000	   0.000000	   0.000000;
	2	 0.0	 0.0	 3	   0.000000	   0.000000	   0.000000;
	2	 0.0	 0.0	 3	   0.000000	   0.000000	   0.000000;
	2	 0.0	 0.0	 3	   0.000000	   0.000000	   0.000000;
	2	 0.0	 0.0	 3	   0.000000	   0.000000	   0.000000;
	2	 0.0	 0.0	 3	   0.000000	   0.000000	   0.000000;
	2	 0.0	 0.0	 3	   0.000000	   0.000000	   0.000000;
2	0.0	0.0	3	0.2	112.780000	0.000000;
2	0.0	0.0	3	0.2	112.780000	0.000000;
2	0.0	0.0	3	0.2	112.780000	0.000000;
	2	 0.0	 0.0	 3	   0.000000	   0.000000	   0.000000;
	2	 0.0	 0.0	 3	   0.000000	   0.000000	   0.000000;
	2	 0.0	 0.0	 3	   0.000000	   0.000000	   0.000000;
	2	 0.0	 0.0	 3	   0.000000	   0.000000	   0.000000;
	2	 0.0	 0.0	 3	   0.000000	   0.000000	   0.000000;
	2	 0.0	 0.0	 3	   0.000000	   0.000000	   0.000000;
	2	 0.0	 0.0	 3	   0.000000	   0.000000	   0.000000;
	2	 0.0	 0.0	 3	   0.000000	   0.000000	   0.000000;
	2	 0.0	 0.0	 3	   0.000000	   0.000000	   0.000000;
	2	 0.0	 0.0	 3	   0.000000	   0.000000	   0.000000;
	2	 0.0	 0.0	 3	   0.000000	   0.000000	   0.000000;
	2	 0.0	 0.0	 3	   0.000000	   0.000000	   0.000000;
	2	 0.0	 0.0	 3	   0.000000	   0.000000	   0.000000;
	2	 0.0	 0.0	 3	   0.000000	   0.000000	   0.000000;
	2	 0.0	 0.0	 3	   0.000000	   0.000000	   0.000000;
	2	 0.0	 0.0	 3	   0.000000	   0.000000	   0.000000;
	2	 0.0	 0.0	 3	   0.000000	   0.000000	   0.000000;
	2	 0.0	 0.0	 3	   0.000000	   0.000000	   0.000000;
	2	 0.0	 0.0	 3	   0.000000	   0.000000	   0.000000;
	2	 0.0	 0.0	 3	   0.000000	   0.000000	   0.000000;
	2	 0.0	 0.0	 3	   0.000000	   0.000000	   0.000000;
	2	 0.0	 0.0	 3	   0.000000	   0.000000	   0.000000;
	2	 0.0	 0.0	 3	   0.000000	   0.000000	   0.000000;
	2	 0.0	 0.0	 3	   0.000000	   0.000000	   0.000000;
	2	 0.0	 0.0	 3	   0.000000	   0.000000	   0.000000;
	2	 0.0	 0.0	 3	   0.000000	   0.000000	   0.000000;
	2	 0.0	 0.0	 3	   0.000000	   0.000000	   0.000000;
	2	 0.0	 0.0	 3	   0.000000	   0.000000	   0.000000;
	2	 0.0	 0.0	 3	   0.000000	   0.000000	   0.000000;
	2	 0.0	 0.0	 3	   0.000000	   0.000000	   0.000000;
	2	 0.0	 0.0	 3	   0.000000	   0.000000	   0.000000;
	2	 0.0	 0.0	 3	   0.000000	   0.000000	   0.000000;
	2	 0.0	 0.0	 3	   0.000000	   0.000000	   0.000000;
	2	 0.0	 0.0	 3	   0.000000	   0.000000	   0.000000;
	2	 0.0	 0.0	 3	   0.000000	   0.000000	   0.000000;
	2	 0.0	 0.0	 3	   0.000000	   0.000000	   0.000000;
	2	 0.0	 0.0	 3	   0.000000	   0.000000	   0.000000;
	2	 0.0	 0.0	 3	   0.000000	   0.000000	   0.000000;
	2	 0.0	 0.0	 3	   0.000000	   0.000000	   0.000000;
	2	 0.0	 0.0	 3	   0.000000	   0.000000	   0.000000;
	2	 0.0	 0.0	 3	   0.000000	   0.000000	   0.000000;
2	0.0	0.0	3	0.2	102.050000	0.000000;
2	0.0	0.0	3	0.2	102.050000	0.000000;
	2	 0.0	 0.0	 3	   0.000000	   0.000000	   0.000000;
	2	 0.0	 0.0	 3	   0.000000	   0.000000	   0.000000;
	2	 0.0	 0.0	 3	   0.000000	   0.000000	   0.000000;
	2	 0.0	 0.0	 3	   0.000000	   0.000000	   0.000000;
	2	 0.0	 0.0	 3	   0.000000	   0.000000	   0.000000;
	2	 0.0	 0.0	 3	   0.000000	   0.000000	   0.000000;
	2	 0.0	 0.0	 3	   0.000000	   0.000000	   0.000000;
	2	 0.0	 0.0	 3	   0.000000	   0.000000	   0.000000;
	2	 0.0	 0.0	 3	   0.000000	   0.000000	   0.000000;
	2	 0.0	 0.0	 3	   0.000000	   0.000000	   0.000000;
	2	 0.0	 0.0	 3	   0.000000	   0.000000	   0.000000;
	2	 0.0	 0.0	 3	   0.000000	   0.000000	   0.000000;
2	0.0	0.0	3	0.2	105.350000	0.000000;
	2	 0.0	 0.0	 3	   0.000000	   0.000000	   0.000000;
	2	 0.0	 0.0	 3	   0.000000	   0.000000	   0.000000;
	2	 0.0	 0.0	 3	   0.000000	   0.000000	   0.000000;
	2	 0.0	 0.0	 3	   0.000000	   0.000000	   0.000000;
	2	 0.0	 0.0	 3	   0.000000	   0.000000	   0.000000;
	2	 0.0	 0.0	 3	   0.000000	   0.000000	   0.000000;
	2	 0.0	 0.0	 3	   0.000000	   0.000000	   0.000000;
	2	 0.0	 0.0	 3	   0.000000	   0.000000	   0.000000;
2	0.0	0.0	3	0.2	0.010000	0.000000;
2	0.0	0.0	3	0.2	0.010000	0.000000;
2	0.0	0.0	3	0.2	0.010000	0.000000;
2	0.0	0.0	3	0.2	0.010000	0.000000;
2	0.0	0.0	3	0.2	111.630000	0.000000;
2	0.0	0.0	3	0.2	111.630000	0.000000;
	2	 0.0	 0.0	 3	   0.000000	   0.000000	   0.000000;
	2	 0.0	 0.0	 3	   0.000000	   0.000000	   0.000000;
	2	 0.0	 0.0	 3	   0.000000	   0.000000	   0.000000;
	2	 0.0	 0.0	 3	   0.000000	   0.000000	   0.000000;
	2	 0.0	 0.0	 3	   0.000000	   0.000000	   0.000000;
	2	 0.0	 0.0	 3	   0.000000	   0.000000	   0.000000;
	2	 0.0	 0.0	 3	   0.000000	   0.000000	   0.000000;
	2	 0.0	 0.0	 3	   0.000000	   0.000000	   0.000000;
	2	 0.0	 0.0	 3	   0.000000	   0.000000	   0.000000;
	2	 0.0	 0.0	 3	   0.000000	   0.000000	   0.000000;
	2	 0.0	 0.0	 3	   0.000000	   0.000000	   0.000000;
	2	 0.0	 0.0	 3	   0.000000	   0.000000	   0.000000;
	2	 0.0	 0.0	 3	   0.000000	   0.000000	   0.000000;
	2	 0.0	 0.0	 3	   0.000000	   0.000000	   0.000000;
...
];

%% storage data
%	bus	energy	energy_rating	charge_rating	discharge_rating	thermal_rating	qmin	qmax	r	x	standby_loss	status
mpc.storage = [
	205	0.0	0.0	1.00	929.8680	464.9340	334.7525	0.9	0.85	1000	-1000	1000	0.1	0.01	0	0	1;
	2733	0.0	0.0	1.00	496.2525	248.1262	178.6509	0.9	0.85	1000	-1000	1000	0.1	0.01	0	0	1;
	2738	0.0	0.0	1.00	433.5705	216.7853	156.0854	0.9	0.85	1000	-1000	1000	0.1	0.01	0	0	1;
	132	0.0	0.0	1.00	407.9985	203.9993	146.8795	0.9	0.85	1000	-1000	1000	0.1	0.01	0	0	1;
	133	0.0	0.0	1.00	399.7500	199.8750	143.9100	0.9	0.85	1000	-1000	1000	0.1	0.01	0	0	1;
	2732	0.0	0.0	1.00	340.7250	170.3625	122.6610	0.9	0.85	1000	-1000	1000	0.1	0.01	0	0	1;
	206	0.0	0.0	1.00	307.8825	153.9412	110.8377	0.9	0.85	1000	-1000	1000	0.1	0.01	0	0	1;
	59	0.0	0.0	1.00	256.0995	128.0498	92.1958	0.9	0.85	1000	-1000	1000	0.1	0.01	0	0	1;
	2562	0.0	0.0	1.00	190.8135	95.4068	68.6929	0.9	0.85	1000	-1000	1000	0.1	0.01	0	0	1;
	1186	0.0	0.0	1.00	152.9805	76.4903	55.0730	0.9	0.85	1000	-1000	1000	0.1	0.01	0	0	1;
	1138	0.0	0.0	1.00	146.1795	73.0898	52.6246	0.9	0.85	1000	-1000	1000	0.1	0.01	0	0	1;
	1187	0.0	0.0	1.00	132.5535	66.2767	47.7193	0.9	0.85	1000	-1000	1000	0.1	0.01	0	0	1;
	27	0.0	0.0	1.00	127.5075	63.7537	45.9027	0.9	0.85	1000	-1000	1000	0.1	0.01	0	0	1;
	2047	0.0	0.0	1.00	123.1380	61.5690	44.3297	0.9	0.85	1000	-1000	1000	0.1	0.01	0	0	1;
	2684	0.0	0.0	1.00	121.5405	60.7703	43.7546	0.9	0.85	1000	-1000	1000	0.1	0.01	0	0	1;
	306	0.0	0.0	1.00	117.1020	58.5510	42.1567	0.9	0.85	1000	-1000	1000	0.1	0.01	0	0	1;
	365	0.0	0.0	1.00	116.4240	58.2120	41.9126	0.9	0.85	1000	-1000	1000	0.1	0.01	0	0	1;
	534	0.0	0.0	1.00	112.0515	56.0257	40.3385	0.9	0.85	1000	-1000	1000	0.1	0.01	0	0	1;
	1245	0.0	0.0	1.00	110.8095	55.4048	39.8914	0.9	0.85	1000	-1000	1000	0.1	0.01	0	0	1;
	2746	0.0	0.0	1.00	102.0000	51.0000	36.7200	0.9	0.85	1000	-1000	1000	0.1	0.01	0	0	1;
	2112	0.0	0.0	1.00	101.0715	50.5358	36.3857	0.9	0.85	1000	-1000	1000	0.1	0.01	0	0	1;
	29	0.0	0.0	1.00	90.1455	45.0727	32.4524	0.9	0.85	1000	-1000	1000	0.1	0.01	0	0	1;
	109	0.0	0.0	1.00	84.6660	42.3330	30.4798	0.9	0.85	1000	-1000	1000	0.1	0.01	0	0	1;
	840	0.0	0.0	1.00	84.1155	42.0577	30.2816	0.9	0.85	1000	-1000	1000	0.1	0.01	0	0	1;
	146	0.0	0.0	1.00	82.8825	41.4413	29.8377	0.9	0.85	1000	-1000	1000	0.1	0.01	0	0	1;
	507	0.0	0.0	1.00	80.0415	40.0207	28.8149	0.9	0.85	1000	-1000	1000	0.1	0.01	0	0	1;
	108	0.0	0.0	1.00	79.0890	39.5445	28.4720	0.9	0.85	1000	-1000	1000	0.1	0.01	0	0	1;
	1246	0.0	0.0	1.00	78.1710	39.0855	28.1416	0.9	0.85	1000	-1000	1000	0.1	0.01	0	0	1;
	307	0.0	0.0	1.00	78.1110	39.0555	28.1200	0.9	0.85	1000	-1000	1000	0.1	0.01	0	0	1;
	2744	0.0	0.0	1.00	76.5000	38.2500	27.5400	0.9	0.85	1000	-1000	1000	0.1	0.01	0	0	1;
	2743	0.0	0.0	1.00	75.0000	37.5000	27.0000	0.9	0.85	1000	-1000	1000	0.1	0.01	0	0	1;
	2042	0.0	0.0	1.00	68.7435	34.3717	24.7477	0.9	0.85	1000	-1000	1000	0.1	0.01	0	0	1;
	28	0.0	0.0	1.00	67.1745	33.5872	24.1828	0.9	0.85	1000	-1000	1000	0.1	0.01	0	0	1;
	2688	0.0	0.0	1.00	66.8145	33.4072	24.0532	0.9	0.85	1000	-1000	1000	0.1	0.01	0	0	1;
	535	0.0	0.0	1.00	66.3315	33.1657	23.8793	0.9	0.85	1000	-1000	1000	0.1	0.01	0	0	1;
	1011	0.0	0.0	1.00	66.2910	33.1455	23.8648	0.9	0.85	1000	-1000	1000	0.1	0.01	0	0	1;
	86	0.0	0.0	1.00	66.2220	33.1110	23.8399	0.9	0.85	1000	-1000	1000	0.1	0.01	0	0	1;
	265	0.0	0.0	1.00	65.4900	32.7450	23.5764	0.9	0.85	1000	-1000	1000	0.1	0.01	0	0	1;
	364	0.0	0.0	1.00	64.0335	32.0168	23.0521	0.9	0.85	1000	-1000	1000	0.1	0.01	0	0	1;
	557	0.0	0.0	1.00	63.7335	31.8667	22.9441	0.9	0.85	1000	-1000	1000	0.1	0.01	0	0	1;
	2707	0.0	0.0	1.00	63.6330	31.8165	22.9079	0.9	0.85	1000	-1000	1000	0.1	0.01	0	0	1;
	264	0.0	0.0	1.00	62.5785	31.2893	22.5283	0.9	0.85	1000	-1000	1000	0.1	0.01	0	0	1;
	362	0.0	0.0	1.00	58.2120	29.1060	20.9563	0.9	0.85	1000	-1000	1000	0.1	0.01	0	0	1;
	363	0.0	0.0	1.00	58.2120	29.1060	20.9563	0.9	0.85	1000	-1000	1000	0.1	0.01	0	0	1;
	2537	0.0	0.0	1.00	57.3945	28.6972	20.6620	0.9	0.85	1000	-1000	1000	0.1	0.01	0	0	1;
	329	0.0	0.0	1.00	57.3375	28.6688	20.6415	0.9	0.85	1000	-1000	1000	0.1	0.01	0	0	1;
	310	0.0	0.0	1.00	55.1055	27.5528	19.8380	0.9	0.85	1000	-1000	1000	0.1	0.01	0	0	1;
	2427	0.0	0.0	1.00	54.7680	27.3840	19.7165	0.9	0.85	1000	-1000	1000	0.1	0.01	0	0	1;
	2657	0.0	0.0	1.00	54.3375	27.1688	19.5615	0.9	0.85	1000	-1000	1000	0.1	0.01	0	0	1;
	2284	0.0	0.0	1.00	53.5050	26.7525	19.2618	0.9	0.85	1000	-1000	1000	0.1	0.01	0	0	1;
	558	0.0	0.0	1.00	53.2860	26.6430	19.1830	0.9	0.85	1000	-1000	1000	0.1	0.01	0	0	1;
	2239	0.0	0.0	1.00	52.5510	26.2755	18.9184	0.9	0.85	1000	-1000	1000	0.1	0.01	0	0	1;
	82	0.0	0.0	1.00	52.4985	26.2493	18.8995	0.9	0.85	1000	-1000	1000	0.1	0.01	0	0	1;
	2722	0.0	0.0	1.00	52.4970	26.2485	18.8989	0.9	0.85	1000	-1000	1000	0.1	0.01	0	0	1;
	2508	0.0	0.0	1.00	52.4385	26.2193	18.8779	0.9	0.85	1000	-1000	1000	0.1	0.01	0	0	1;
	542	0.0	0.0	1.00	52.3905	26.1953	18.8606	0.9	0.85	1000	-1000	1000	0.1	0.01	0	0	1;
	732	0.0	0.0	1.00	51.2175	25.6088	18.4383	0.9	0.85	1000	-1000	1000	0.1	0.01	0	0	1;
	1435	0.0	0.0	1.00	50.9790	25.4895	18.3524	0.9	0.85	1000	-1000	1000	0.1	0.01	0	0	1;
	2349	0.0	0.0	1.00	50.8545	25.4273	18.3076	0.9	0.85	1000	-1000	1000	0.1	0.01	0	0	1;
	156	0.0	0.0	1.00	50.7480	25.3740	18.2693	0.9	0.85	1000	-1000	1000	0.1	0.01	0	0	1;
	155	0.0	0.0	1.00	50.3895	25.1948	18.1402	0.9	0.85	1000	-1000	1000	0.1	0.01	0	0	1;
	2741	0.0	0.0	1.00	49.5000	24.7500	17.8200	0.9	0.85	1000	-1000	1000	0.1	0.01	0	0	1;
	2742	0.0	0.0	1.00	49.5000	24.7500	17.8200	0.9	0.85	1000	-1000	1000	0.1	0.01	0	0	1;
	712	0.0	0.0	1.00	49.0710	24.5355	17.6656	0.9	0.85	1000	-1000	1000	0.1	0.01	0	0	1;
	1131	0.0	0.0	1.00	48.9975	24.4988	17.6391	0.9	0.85	1000	-1000	1000	0.1	0.01	0	0	1;
	726	0.0	0.0	1.00	47.9160	23.9580	17.2498	0.9	0.85	1000	-1000	1000	0.1	0.01	0	0	1;
	1362	0.0	0.0	1.00	47.7975	23.8987	17.2071	0.9	0.85	1000	-1000	1000	0.1	0.01	0	0	1;
	2706	0.0	0.0	1.00	47.7240	23.8620	17.1806	0.9	0.85	1000	-1000	1000	0.1	0.01	0	0	1;
	1153	0.0	0.0	1.00	47.6865	23.8433	17.1671	0.9	0.85	1000	-1000	1000	0.1	0.01	0	0	1;
	2083	0.0	0.0	1.00	47.0505	23.5252	16.9382	0.9	0.85	1000	-1000	1000	0.1	0.01	0	0	1;
	549	0.0	0.0	1.00	46.5690	23.2845	16.7648	0.9	0.85	1000	-1000	1000	0.1	0.01	0	0	1;
	126	0.0	0.0	1.00	46.0080	23.0040	16.5629	0.9	0.85	1000	-1000	1000	0.1	0.01	0	0	1;
	1136	0.0	0.0	1.00	45.8925	22.9462	16.5213	0.9	0.85	1000	-1000	1000	0.1	0.01	0	0	1;
	402	0.0	0.0	1.00	45.8415	22.9207	16.5029	0.9	0.85	1000	-1000	1000	0.1	0.01	0	0	1;
	2147	0.0	0.0	1.00	45.6930	22.8465	16.4495	0.9	0.85	1000	-1000	1000	0.1	0.01	0	0	1;
	525	0.0	0.0	1.00	45.1140	22.5570	16.2410	0.9	0.85	1000	-1000	1000	0.1	0.01	0	0	1;
	2721	0.0	0.0	1.00	44.5425	22.2713	16.0353	0.9	0.85	1000	-1000	1000	0.1	0.01	0	0	1;
	311	0.0	0.0	1.00	44.4495	22.2248	16.0018	0.9	0.85	1000	-1000	1000	0.1	0.01	0	0	1;
	523	0.0	0.0	1.00	44.3865	22.1932	15.9791	0.9	0.85	1000	-1000	1000	0.1	0.01	0	0	1;
	804	0.0	0.0	1.00	43.7265	21.8633	15.7415	0.9	0.85	1000	-1000	1000	0.1	0.01	0	0	1;
	995	0.0	0.0	1.00	43.6335	21.8167	15.7081	0.9	0.85	1000	-1000	1000	0.1	0.01	0	0	1;
	26	0.0	0.0	1.00	42.8475	21.4238	15.4251	0.9	0.85	1000	-1000	1000	0.1	0.01	0	0	1;
	998	0.0	0.0	1.00	42.2970	21.1485	15.2269	0.9	0.85	1000	-1000	1000	0.1	0.01	0	0	1;
	2717	0.0	0.0	1.00	42.2010	21.1005	15.1924	0.9	0.85	1000	-1000	1000	0.1	0.01	0	0	1;
	127	0.0	0.0	1.00	41.9985	20.9992	15.1195	0.9	0.85	1000	-1000	1000	0.1	0.01	0	0	1;
	2101	0.0	0.0	1.00	41.3850	20.6925	14.8986	0.9	0.85	1000	-1000	1000	0.1	0.01	0	0	1;
	1877	0.0	0.0	1.00	40.7940	20.3970	14.6858	0.9	0.85	1000	-1000	1000	0.1	0.01	0	0	1;
	2113	0.0	0.0	1.00	40.7145	20.3573	14.6572	0.9	0.85	1000	-1000	1000	0.1	0.01	0	0	1;
	78	0.0	0.0	1.00	40.4985	20.2492	14.5795	0.9	0.85	1000	-1000	1000	0.1	0.01	0	0	1;
	1779	0.0	0.0	1.00	40.4535	20.2268	14.5633	0.9	0.85	1000	-1000	1000	0.1	0.01	0	0	1;
	1151	0.0	0.0	1.00	39.7470	19.8735	14.3089	0.9	0.85	1000	-1000	1000	0.1	0.01	0	0	1;
	994	0.0	0.0	1.00	39.4365	19.7183	14.1971	0.9	0.85	1000	-1000	1000	0.1	0.01	0	0	1;
	530	0.0	0.0	1.00	39.2925	19.6463	14.1453	0.9	0.85	1000	-1000	1000	0.1	0.01	0	0	1;
	607	0.0	0.0	1.00	38.1045	19.0523	13.7176	0.9	0.85	1000	-1000	1000	0.1	0.01	0	0	1;
	652	0.0	0.0	1.00	38.0010	19.0005	13.6804	0.9	0.85	1000	-1000	1000	0.1	0.01	0	0	1;
	1368	0.0	0.0	1.00	37.5645	18.7822	13.5232	0.9	0.85	1000	-1000	1000	0.1	0.01	0	0	1;
	2692	0.0	0.0	1.00	37.5435	18.7718	13.5157	0.9	0.85	1000	-1000	1000	0.1	0.01	0	0	1;
	2745	0.0	0.0	1.00	37.5000	18.7500	13.5000	0.9	0.85	1000	-1000	1000	0.1	0.01	0	0	1;
	1417	0.0	0.0	1.00	37.4355	18.7178	13.4768	0.9	0.85	1000	-1000	1000	0.1	0.01	0	0	1;
	2151	0.0	0.0	1.00	36.9240	18.4620	13.2926	0.9	0.85	1000	-1000	1000	0.1	0.01	0	0	1;
	1385	0.0	0.0	1.00	36.6195	18.3098	13.1830	0.9	0.85	1000	-1000	1000	0.1	0.01	0	0	1;
	506	0.0	0.0	1.00	36.3825	18.1913	13.0977	0.9	0.85	1000	-1000	1000	0.1	0.01	0	0	1;
	713	0.0	0.0	1.00	36.3480	18.1740	13.0853	0.9	0.85	1000	-1000	1000	0.1	0.01	0	0	1;
	44	0.0	0.0	1.00	36.0000	18.0000	12.9600	0.9	0.85	1000	-1000	1000	0.1	0.01	0	0	1;
	1247	0.0	0.0	1.00	35.0010	17.5005	12.6004	0.9	0.85	1000	-1000	1000	0.1	0.01	0	0	1;
	1497	0.0	0.0	1.00	34.7235	17.3618	12.5005	0.9	0.85	1000	-1000	1000	0.1	0.01	0	0	1;
	2043	0.0	0.0	1.00	34.6785	17.3392	12.4843	0.9	0.85	1000	-1000	1000	0.1	0.01	0	0	1;
	1440	0.0	0.0	1.00	34.5420	17.2710	12.4351	0.9	0.85	1000	-1000	1000	0.1	0.01	0	0	1;
	1342	0.0	0.0	1.00	34.4895	17.2447	12.4162	0.9	0.85	1000	-1000	1000	0.1	0.01	0	0	1;
	917	0.0	0.0	1.00	34.3350	17.1675	12.3606	0.9	0.85	1000	-1000	1000	0.1	0.01	0	0	1;
	1143	0.0	0.0	1.00	33.9960	16.9980	12.2386	0.9	0.85	1000	-1000	1000	0.1	0.01	0	0	1;
	1152	0.0	0.0	1.00	33.9810	16.9905	12.2332	0.9	0.85	1000	-1000	1000	0.1	0.01	0	0	1;
	1373	0.0	0.0	1.00	33.9495	16.9748	12.2218	0.9	0.85	1000	-1000	1000	0.1	0.01	0	0	1;
	2435	0.0	0.0	1.00	33.8430	16.9215	12.1835	0.9	0.85	1000	-1000	1000	0.1	0.01	0	0	1;
	1341	0.0	0.0	1.00	33.8085	16.9043	12.1711	0.9	0.85	1000	-1000	1000	0.1	0.01	0	0	1;
	999	0.0	0.0	1.00	33.7995	16.8998	12.1678	0.9	0.85	1000	-1000	1000	0.1	0.01	0	0	1;
	2534	0.0	0.0	1.00	33.7620	16.8810	12.1543	0.9	0.85	1000	-1000	1000	0.1	0.01	0	0	1;
	2458	0.0	0.0	1.00	33.7605	16.8803	12.1538	0.9	0.85	1000	-1000	1000	0.1	0.01	0	0	1;
	543	0.0	0.0	1.00	33.4725	16.7363	12.0501	0.9	0.85	1000	-1000	1000	0.1	0.01	0	0	1;
	282	0.0	0.0	1.00	33.4710	16.7355	12.0496	0.9	0.85	1000	-1000	1000	0.1	0.01	0	0	1;
	1434	0.0	0.0	1.00	32.2800	16.1400	11.6208	0.9	0.85	1000	-1000	1000	0.1	0.01	0	0	1;
	253	0.0	0.0	1.00	32.0175	16.0087	11.5263	0.9	0.85	1000	-1000	1000	0.1	0.01	0	0	1;
	412	0.0	0.0	1.00	32.0175	16.0087	11.5263	0.9	0.85	1000	-1000	1000	0.1	0.01	0	0	1;
	547	0.0	0.0	1.00	32.0160	16.0080	11.5258	0.9	0.85	1000	-1000	1000	0.1	0.01	0	0	1;
	929	0.0	0.0	1.00	31.8705	15.9352	11.4734	0.9	0.85	1000	-1000	1000	0.1	0.01	0	0	1;
	663	0.0	0.0	1.00	31.3920	15.6960	11.3011	0.9	0.85	1000	-1000	1000	0.1	0.01	0	0	1;
	950	0.0	0.0	1.00	31.1370	15.5685	11.2093	0.9	0.85	1000	-1000	1000	0.1	0.01	0	0	1;
	972	0.0	0.0	1.00	31.1355	15.5678	11.2088	0.9	0.85	1000	-1000	1000	0.1	0.01	0	0	1;
	1850	0.0	0.0	1.00	31.1250	15.5625	11.2050	0.9	0.85	1000	-1000	1000	0.1	0.01	0	0	1;
	601	0.0	0.0	1.00	31.0620	15.5310	11.1823	0.9	0.85	1000	-1000	1000	0.1	0.01	0	0	1;
	2478	0.0	0.0	1.00	30.9285	15.4642	11.1343	0.9	0.85	1000	-1000	1000	0.1	0.01	0	0	1;
	1396	0.0	0.0	1.00	30.8145	15.4072	11.0932	0.9	0.85	1000	-1000	1000	0.1	0.01	0	0	1;
	1359	0.0	0.0	1.00	30.6390	15.3195	11.0300	0.9	0.85	1000	-1000	1000	0.1	0.01	0	0	1;
	976	0.0	0.0	1.00	30.5970	15.2985	11.0149	0.9	0.85	1000	-1000	1000	0.1	0.01	0	0	1;
	532	0.0	0.0	1.00	30.5610	15.2805	11.0020	0.9	0.85	1000	-1000	1000	0.1	0.01	0	0	1;
	45	0.0	0.0	1.00	30.0000	15.0000	10.8000	0.9	0.85	1000	-1000	1000	0.1	0.01	0	0	1;
	1930	0.0	0.0	1.00	29.8845	14.9422	10.7584	0.9	0.85	1000	-1000	1000	0.1	0.01	0	0	1;
	401	0.0	0.0	1.00	29.8335	14.9168	10.7401	0.9	0.85	1000	-1000	1000	0.1	0.01	0	0	1;
	624	0.0	0.0	1.00	29.7375	14.8687	10.7055	0.9	0.85	1000	-1000	1000	0.1	0.01	0	0	1;
	2710	0.0	0.0	1.00	29.5890	14.7945	10.6520	0.9	0.85	1000	-1000	1000	0.1	0.01	0	0	1;
	1675	0.0	0.0	1.00	29.4690	14.7345	10.6088	0.9	0.85	1000	-1000	1000	0.1	0.01	0	0	1;
	671	0.0	0.0	1.00	29.2455	14.6227	10.5284	0.9	0.85	1000	-1000	1000	0.1	0.01	0	0	1;
	541	0.0	0.0	1.00	29.1060	14.5530	10.4782	0.9	0.85	1000	-1000	1000	0.1	0.01	0	0	1;
	1911	0.0	0.0	1.00	28.8810	14.4405	10.3972	0.9	0.85	1000	-1000	1000	0.1	0.01	0	0	1;
	125	0.0	0.0	1.00	28.8195	14.4098	10.3750	0.9	0.85	1000	-1000	1000	0.1	0.01	0	0	1;
	215	0.0	0.0	1.00	28.7910	14.3955	10.3648	0.9	0.85	1000	-1000	1000	0.1	0.01	0	0	1;
	1279	0.0	0.0	1.00	28.3920	14.1960	10.2211	0.9	0.85	1000	-1000	1000	0.1	0.01	0	0	1;
	308	0.0	0.0	1.00	28.3830	14.1915	10.2179	0.9	0.85	1000	-1000	1000	0.1	0.01	0	0	1;
	1495	0.0	0.0	1.00	28.0620	14.0310	10.1023	0.9	0.85	1000	-1000	1000	0.1	0.01	0	0	1;
	1193	0.0	0.0	1.00	27.8775	13.9388	10.0359	0.9	0.85	1000	-1000	1000	0.1	0.01	0	0	1;
	2123	0.0	0.0	1.00	27.8640	13.9320	10.0310	0.9	0.85	1000	-1000	1000	0.1	0.01	0	0	1;
	255	0.0	0.0	1.00	27.6495	13.8247	9.9538	0.9	0.85	1000	-1000	1000	0.1	0.01	0	0	1;
	1858	0.0	0.0	1.00	27.5655	13.7828	9.9236	0.9	0.85	1000	-1000	1000	0.1	0.01	0	0	1;
	859	0.0	0.0	1.00	27.3810	13.6905	9.8572	0.9	0.85	1000	-1000	1000	0.1	0.01	0	0	1;
	2579	0.0	0.0	1.00	27.0090	13.5045	9.7232	0.9	0.85	1000	-1000	1000	0.1	0.01	0	0	1;
	1286	0.0	0.0	1.00	26.9985	13.4992	9.7195	0.9	0.85	1000	-1000	1000	0.1	0.01	0	0	1;
	1384	0.0	0.0	1.00	26.8560	13.4280	9.6682	0.9	0.85	1000	-1000	1000	0.1	0.01	0	0	1;
	1888	0.0	0.0	1.00	26.8560	13.4280	9.6682	0.9	0.85	1000	-1000	1000	0.1	0.01	0	0	1;
	2077	0.0	0.0	1.00	26.6550	13.3275	9.5958	0.9	0.85	1000	-1000	1000	0.1	0.01	0	0	1;
	753	0.0	0.0	1.00	26.4360	13.2180	9.5170	0.9	0.85	1000	-1000	1000	0.1	0.01	0	0	1;
	754	0.0	0.0	1.00	26.4360	13.2180	9.5170	0.9	0.85	1000	-1000	1000	0.1	0.01	0	0	1;
	1644	0.0	0.0	1.00	26.3670	13.1835	9.4921	0.9	0.85	1000	-1000	1000	0.1	0.01	0	0	1;
	1841	0.0	0.0	1.00	26.2995	13.1498	9.4678	0.9	0.85	1000	-1000	1000	0.1	0.01	0	0	1;
	1458	0.0	0.0	1.00	26.0160	13.0080	9.3658	0.9	0.85	1000	-1000	1000	0.1	0.01	0	0	1;
	803	0.0	0.0	1.00	25.7925	12.8963	9.2853	0.9	0.85	1000	-1000	1000	0.1	0.01	0	0	1;
	98	0.0	0.0	1.00	25.6665	12.8332	9.2399	0.9	0.85	1000	-1000	1000	0.1	0.01	0	0	1;
	1662	0.0	0.0	1.00	25.4970	12.7485	9.1789	0.9	0.85	1000	-1000	1000	0.1	0.01	0	0	1;
	2383	0.0	0.0	1.00	25.3080	12.6540	9.1109	0.9	0.85	1000	-1000	1000	0.1	0.01	0	0	1;
	747	0.0	0.0	1.00	25.2795	12.6398	9.1006	0.9	0.85	1000	-1000	1000	0.1	0.01	0	0	1;
	1901	0.0	0.0	1.00	25.0740	12.5370	9.0266	0.9	0.85	1000	-1000	1000	0.1	0.01	0	0	1;
	986	0.0	0.0	1.00	24.9675	12.4838	8.9883	0.9	0.85	1000	-1000	1000	0.1	0.01	0	0	1;
	687	0.0	0.0	1.00	24.7845	12.3923	8.9224	0.9	0.85	1000	-1000	1000	0.1	0.01	0	0	1;
	496	0.0	0.0	1.00	24.7410	12.3705	8.9068	0.9	0.85	1000	-1000	1000	0.1	0.01	0	0	1;
	234	0.0	0.0	1.00	24.7395	12.3697	8.9062	0.9	0.85	1000	-1000	1000	0.1	0.01	0	0	1;
	1566	0.0	0.0	1.00	24.6765	12.3383	8.8835	0.9	0.85	1000	-1000	1000	0.1	0.01	0	0	1;
	2351	0.0	0.0	1.00	24.6240	12.3120	8.8646	0.9	0.85	1000	-1000	1000	0.1	0.01	0	0	1;
	2314	0.0	0.0	1.00	24.6030	12.3015	8.8571	0.9	0.85	1000	-1000	1000	0.1	0.01	0	0	1;
	2613	0.0	0.0	1.00	24.4785	12.2392	8.8123	0.9	0.85	1000	-1000	1000	0.1	0.01	0	0	1;
	1350	0.0	0.0	1.00	24.2460	12.1230	8.7286	0.9	0.85	1000	-1000	1000	0.1	0.01	0	0	1;
	2616	0.0	0.0	1.00	24.1455	12.0728	8.6924	0.9	0.85	1000	-1000	1000	0.1	0.01	0	0	1;
	290	0.0	0.0	1.00	24.0120	12.0060	8.6443	0.9	0.85	1000	-1000	1000	0.1	0.01	0	0	1;
	371	0.0	0.0	1.00	24.0120	12.0060	8.6443	0.9	0.85	1000	-1000	1000	0.1	0.01	0	0	1;
	2254	0.0	0.0	1.00	23.8680	11.9340	8.5925	0.9	0.85	1000	-1000	1000	0.1	0.01	0	0	1;
	1403	0.0	0.0	1.00	23.7975	11.8987	8.5671	0.9	0.85	1000	-1000	1000	0.1	0.01	0	0	1;
	1912	0.0	0.0	1.00	23.7825	11.8912	8.5617	0.9	0.85	1000	-1000	1000	0.1	0.01	0	0	1;
	1021	0.0	0.0	1.00	23.7600	11.8800	8.5536	0.9	0.85	1000	-1000	1000	0.1	0.01	0	0	1;
	2366	0.0	0.0	1.00	23.7315	11.8658	8.5433	0.9	0.85	1000	-1000	1000	0.1	0.01	0	0	1;
	2725	0.0	0.0	1.00	23.6325	11.8163	8.5077	0.9	0.85	1000	-1000	1000	0.1	0.01	0	0	1;
	860	0.0	0.0	1.00	23.5335	11.7668	8.4721	0.9	0.85	1000	-1000	1000	0.1	0.01	0	0	1;
	2702	0.0	0.0	1.00	23.3940	11.6970	8.4218	0.9	0.85	1000	-1000	1000	0.1	0.01	0	0	1;
	283	0.0	0.0	1.00	23.2860	11.6430	8.3830	0.9	0.85	1000	-1000	1000	0.1	0.01	0	0	1;
	381	0.0	0.0	1.00	23.2860	11.6430	8.3830	0.9	0.85	1000	-1000	1000	0.1	0.01	0	0	1;
	436	0.0	0.0	1.00	23.2860	11.6430	8.3830	0.9	0.85	1000	-1000	1000	0.1	0.01	0	0	1;
	540	0.0	0.0	1.00	23.2860	11.6430	8.3830	0.9	0.85	1000	-1000	1000	0.1	0.01	0	0	1;
	223	0.0	0.0	1.00	23.2845	11.6423	8.3824	0.9	0.85	1000	-1000	1000	0.1	0.01	0	0	1;
	456	0.0	0.0	1.00	23.2845	11.6423	8.3824	0.9	0.85	1000	-1000	1000	0.1	0.01	0	0	1;
	1954	0.0	0.0	1.00	23.2035	11.6017	8.3533	0.9	0.85	1000	-1000	1000	0.1	0.01	0	0	1;
	927	0.0	0.0	1.00	23.1615	11.5808	8.3381	0.9	0.85	1000	-1000	1000	0.1	0.01	0	0	1;
	2208	0.0	0.0	1.00	22.9380	11.4690	8.2577	0.9	0.85	1000	-1000	1000	0.1	0.01	0	0	1;
	1546	0.0	0.0	1.00	22.9335	11.4667	8.2561	0.9	0.85	1000	-1000	1000	0.1	0.01	0	0	1;
...
];

%% branch data
%	fbus	tbus	r	x	b	rateA	rateB	rateC	ratio	angle	status	angmin	angmax
mpc.branch = [
	7	 8	 0.00064	 0.0305	 0.0	 400.0	 400.0	 400.0	 1.0435	 0.6	 1	 -30.0	 30.0;
	26	 28	 0.00036	 0.02519	 0.0	 500.0	 500.0	 500.0	 1.0627	 0.0	 1	 -30.0	 30.0;
	27	 29	 0.00036	 0.02519	 0.0	 500.0	 500.0	 500.0	 1.0623	 0.0	 1	 -30.0	 30.0;
	40	 42	 0.00034	 0.02097	 0.0	 500.0	 500.0	 500.0	 1.1011	 0.0	 1	 -30.0	 30.0;
	43	 46	 0.00034	 0.02097	 0.0	 500.0	 500.0	 500.0	 1.0733	 0.0	 1	 -30.0	 30.0;
	55	 57	 0.00081	 0.03	 0.0	 400.0	 400.0	 400.0	 1.0547	 0.0	 1	 -30.0	 30.0;
	90	 92	 0.00075	 0.02444	 -0.00832	 330.0	 330.0	 330.0	 1.0508	 0.0	 1	 -30.0	 30.0;
	91	 93	 0.00075	 0.02469	 -0.008	 330.0	 330.0	 330.0	 1.0499	 0.0	 1	 -30.0	 30.0;
	125	 128	 0.0005	 0.02875	 -0.016	 400.0	 400.0	 400.0	 1.0677	 0.0	 1	 -30.0	 30.0;
	149	 150	 0.00064	 0.0305	 0.0	 400.0	 400.0	 400.0	 1.0568	 0.0	 1	 -30.0	 30.0;
	155	 158	 0.000232	 0.023	 0.0	 500.0	 500.0	 500.0	 1.049	 0.0	 1	 -30.0	 30.0;
	156	 159	 0.000232	 0.023	 0.0	 500.0	 500.0	 500.0	 1.0479	 0.0	 1	 -30.0	 30.0;
	170	 172	 0.00035	 0.02375	 0.0	 500.0	 500.0	 500.0	 1.195	 0.0	 1	 -30.0	 30.0;
	183	 184	 0.00059	 0.03093	 0.0	 400.0	 400.0	 400.0	 1.0847	 0.0	 1	 -30.0	 30.0;
	190	 192	 0.0004	 0.03	 0.0	 500.0	 500.0	 500.0	 1.0485	 0.0	 1	 -30.0	 30.0;
	2735	 158	 0.00031	 0.00338	 0.0992	 1386.0	 1386.0	 1386.0	 0.0	 0.0	 1	 -30.0	 30.0;
	2735	 159	 0.00031	 0.00338	 0.0992	 1386.0	 1386.0	 1386.0	 0.0	 0.0	 1	 -30.0	 30.0;
	2736	 68	 0.014341	 0.083531	 0.126034	 415.0	 415.0	 415.0	 0.0	 0.0	 1	 -30.0	 30.0;
	2734	 76	 0.01219	 0.070659	 0.117418	 412.0	 412.0	 412.0	 0.0	 0.0	 1	 -30.0	 30.0;
	2734	 105	 0.011781	 0.07087	 0.116838	 412.0	 412.0	 412.0	 0.0	 0.0	 1	 -30.0	 30.0;
	2739	 200	 1e-05	 9e-05	 0.0	 924.0	 924.0	 924.0	 0.0	 0.0	 1	 -30.0	 30.0;
	128	 2732	 0.0015	 0.01469	 0.40384	 1386.0	 1386.0	 1386.0	 0.0	 0.0	 0	 -30.0	 30.0;
	127	 2733	 0.001419	 0.014675	 0.4896	 1386.0	 1386.0	 1386.0	 0.0	 0.0	 1	 -30.0	 30.0;
	2737	 148	 0.001651	 0.015909	 0.046948	 373.0	 373.0	 373.0	 0.0	 0.0	 1	 -30.0	 30.0;
	2737	 149	 0.001651	 0.015909	 0.046948	 373.0	 373.0	 373.0	 0.0	 0.0	 1	 -30.0	 30.0;
	2738	 48	 0.00188	 0.02287	 0.6432	 831.0	 831.0	 831.0	 0.0	 0.0	 1	 -30.0	 30.0;
	2738	 49	 0.00188	 0.02287	 0.6432	 831.0	 831.0	 831.0	 0.0	 0.0	 1	 -30.0	 30.0;
	82	 2732	 0.003519	 0.039313	 1.0336	 1621.0	 1621.0	 1621.0	 0.0	 0.0	 1	 -30.0	 30.0;
	43	 23	 0.01345	 0.081141	 0.141134	 339.0	 339.0	 339.0	 0.0	 0.0	 1	 -30.0	 30.0;
	26	 90	 0.009091	 0.062401	 0.111417	 457.0	 457.0	 457.0	 0.0	 0.0	 1	 -30.0	 30.0;
	27	 91	 0.00868	 0.06405	 0.096994	 457.0	 457.0	 457.0	 0.0	 0.0	 1	 -30.0	 30.0;
	146	 30	 0.016961	 0.123659	 0.196988	 373.0	 373.0	 373.0	 0.0	 0.0	 1	 -30.0	 30.0;
...